REMARK  Name = ../refined-set-2016/1zpa/1zpa_pocket.pdb
REMARK  219 active torsions:
REMARK  status: ('A' for Active; 'I' for Inactive)
REMARK    1  A    between atoms: _1  and  _3
REMARK    2  A    between atoms: _3  and  _4
REMARK    3  A    between atoms: _3  and  _6
REMARK    4  A    between atoms: _6  and  _7
REMARK    5  A    between atoms: _7  and  _8
REMARK    6  A    between atoms: _8  and  _9
REMARK    7  A    between atoms: _18  and  _20
REMARK    8  A    between atoms: _20  and  _21
REMARK    9  A    between atoms: _20  and  _23
REMARK   10  A    between atoms: _23  and  _24
REMARK   11  A    between atoms: _27  and  _29
REMARK   12  A    between atoms: _29  and  _30
REMARK   13  A    between atoms: _29  and  _32
REMARK   14  A    between atoms: _32  and  _33
REMARK   15  A    between atoms: _36  and  _38
REMARK   16  A    between atoms: _38  and  _39
REMARK   17  A    between atoms: _38  and  _41
REMARK   18  A    between atoms: _41  and  _42
REMARK   19  A    between atoms: _45  and  _47
REMARK   20  A    between atoms: _47  and  _48
REMARK   21  A    between atoms: _47  and  _50
REMARK   22  A    between atoms: _50  and  _51
REMARK   23  A    between atoms: _54  and  _56
REMARK   24  A    between atoms: _56  and  _57
REMARK   25  A    between atoms: _59  and  _61
REMARK   26  A    between atoms: _61  and  _62
REMARK   27  A    between atoms: _65  and  _67
REMARK   28  A    between atoms: _67  and  _68
REMARK   29  A    between atoms: _67  and  _70
REMARK   30  A    between atoms: _70  and  _71
REMARK   31  A    between atoms: _74  and  _76
REMARK   32  A    between atoms: _76  and  _77
REMARK   33  A    between atoms: _76  and  _79
REMARK   34  A    between atoms: _79  and  _80
REMARK   35  A    between atoms: _83  and  _85
REMARK   36  A    between atoms: _85  and  _86
REMARK   37  A    between atoms: _85  and  _88
REMARK   38  A    between atoms: _88  and  _89
REMARK   39  A    between atoms: _92  and  _94
REMARK   40  A    between atoms: _94  and  _95
REMARK   41  A    between atoms: _94  and  _97
REMARK   42  A    between atoms: _100  and  _102
REMARK   43  A    between atoms: _102  and  _103
REMARK   44  A    between atoms: _102  and  _105
REMARK   45  A    between atoms: _105  and  _106
REMARK   46  A    between atoms: _106  and  _107
REMARK   47  A    between atoms: _109  and  _111
REMARK   48  A    between atoms: _111  and  _112
REMARK   49  A    between atoms: _111  and  _114
REMARK   50  A    between atoms: _114  and  _115
REMARK   51  A    between atoms: _118  and  _120
REMARK   52  A    between atoms: _120  and  _121
REMARK   53  A    between atoms: _123  and  _125
REMARK   54  A    between atoms: _125  and  _126
REMARK   55  A    between atoms: _128  and  _130
REMARK   56  A    between atoms: _130  and  _131
REMARK   57  A    between atoms: _130  and  _133
REMARK   58  A    between atoms: _133  and  _134
REMARK   59  A    between atoms: _137  and  _139
REMARK   60  A    between atoms: _139  and  _140
REMARK   61  A    between atoms: _142  and  _144
REMARK   62  A    between atoms: _144  and  _145
REMARK   63  A    between atoms: _147  and  _149
REMARK   64  A    between atoms: _149  and  _150
REMARK   65  A    between atoms: _149  and  _152
REMARK   66  A    between atoms: _152  and  _153
REMARK   67  A    between atoms: _159  and  _161
REMARK   68  A    between atoms: _161  and  _162
REMARK   69  A    between atoms: _161  and  _164
REMARK   70  A    between atoms: _164  and  _165
REMARK   71  A    between atoms: _168  and  _170
REMARK   72  A    between atoms: _170  and  _171
REMARK   73  A    between atoms: _170  and  _173
REMARK   74  A    between atoms: _173  and  _174
REMARK   75  A    between atoms: _177  and  _179
REMARK   76  A    between atoms: _179  and  _180
REMARK   77  A    between atoms: _179  and  _182
REMARK   78  A    between atoms: _182  and  _183
REMARK   79  A    between atoms: _187  and  _188
REMARK   80  A    between atoms: _193  and  _195
REMARK   81  A    between atoms: _195  and  _196
REMARK   82  A    between atoms: _195  and  _198
REMARK   83  A    between atoms: _201  and  _203
REMARK   84  A    between atoms: _203  and  _204
REMARK   85  A    between atoms: _203  and  _206
REMARK   86  A    between atoms: _206  and  _207
REMARK   87  A    between atoms: _212  and  _214
REMARK   88  A    between atoms: _214  and  _215
REMARK   89  A    between atoms: _214  and  _217
REMARK   90  A    between atoms: _217  and  _218
REMARK   91  A    between atoms: _221  and  _223
REMARK   92  A    between atoms: _223  and  _224
REMARK   93  A    between atoms: _226  and  _228
REMARK   94  A    between atoms: _228  and  _229
REMARK   95  A    between atoms: _228  and  _231
REMARK   96  A    between atoms: _231  and  _232
REMARK   97  A    between atoms: _232  and  _233
REMARK   98  A    between atoms: _233  and  _234
REMARK   99  A    between atoms: _243  and  _245
REMARK  100  A    between atoms: _245  and  _246
REMARK  101  A    between atoms: _245  and  _248
REMARK  102  A    between atoms: _248  and  _249
REMARK  103  A    between atoms: _254  and  _256
REMARK  104  A    between atoms: _256  and  _257
REMARK  105  A    between atoms: _256  and  _259
REMARK  106  A    between atoms: _259  and  _260
REMARK  107  A    between atoms: _260  and  _261
REMARK  108  A    between atoms: _261  and  _262
REMARK  109  A    between atoms: _271  and  _273
REMARK  110  A    between atoms: _273  and  _274
REMARK  111  A    between atoms: _273  and  _276
REMARK  112  A    between atoms: _276  and  _277
REMARK  113  A    between atoms: _280  and  _282
REMARK  114  A    between atoms: _282  and  _283
REMARK  115  A    between atoms: _282  and  _285
REMARK  116  A    between atoms: _285  and  _286
REMARK  117  A    between atoms: _289  and  _291
REMARK  118  A    between atoms: _291  and  _292
REMARK  119  A    between atoms: _291  and  _294
REMARK  120  A    between atoms: _294  and  _295
REMARK  121  A    between atoms: _298  and  _300
REMARK  122  A    between atoms: _300  and  _301
REMARK  123  A    between atoms: _300  and  _303
REMARK  124  A    between atoms: _303  and  _304
REMARK  125  A    between atoms: _307  and  _309
REMARK  126  A    between atoms: _309  and  _310
REMARK  127  A    between atoms: _309  and  _312
REMARK  128  A    between atoms: _312  and  _313
REMARK  129  A    between atoms: _316  and  _318
REMARK  130  A    between atoms: _318  and  _319
REMARK  131  A    between atoms: _321  and  _323
REMARK  132  A    between atoms: _323  and  _324
REMARK  133  A    between atoms: _327  and  _329
REMARK  134  A    between atoms: _329  and  _330
REMARK  135  A    between atoms: _329  and  _332
REMARK  136  A    between atoms: _332  and  _333
REMARK  137  A    between atoms: _336  and  _338
REMARK  138  A    between atoms: _338  and  _339
REMARK  139  A    between atoms: _338  and  _341
REMARK  140  A    between atoms: _341  and  _342
REMARK  141  A    between atoms: _345  and  _347
REMARK  142  A    between atoms: _347  and  _348
REMARK  143  A    between atoms: _347  and  _350
REMARK  144  A    between atoms: _350  and  _351
REMARK  145  A    between atoms: _354  and  _356
REMARK  146  A    between atoms: _356  and  _357
REMARK  147  A    between atoms: _356  and  _359
REMARK  148  A    between atoms: _362  and  _364
REMARK  149  A    between atoms: _364  and  _365
REMARK  150  A    between atoms: _364  and  _367
REMARK  151  A    between atoms: _367  and  _368
REMARK  152  A    between atoms: _368  and  _369
REMARK  153  A    between atoms: _369  and  _370
REMARK  154  A    between atoms: _370  and  _371
REMARK  155  A    between atoms: _375  and  _377
REMARK  156  A    between atoms: _377  and  _378
REMARK  157  A    between atoms: _377  and  _380
REMARK  158  A    between atoms: _380  and  _381
REMARK  159  A    between atoms: _381  and  _382
REMARK  160  A    between atoms: _384  and  _386
REMARK  161  A    between atoms: _386  and  _387
REMARK  162  A    between atoms: _386  and  _389
REMARK  163  A    between atoms: _389  and  _390
REMARK  164  A    between atoms: _393  and  _395
REMARK  165  A    between atoms: _395  and  _396
REMARK  166  A    between atoms: _398  and  _400
REMARK  167  A    between atoms: _400  and  _401
REMARK  168  A    between atoms: _403  and  _405
REMARK  169  A    between atoms: _405  and  _406
REMARK  170  A    between atoms: _405  and  _408
REMARK  171  A    between atoms: _408  and  _409
REMARK  172  A    between atoms: _412  and  _414
REMARK  173  A    between atoms: _414  and  _415
REMARK  174  A    between atoms: _417  and  _419
REMARK  175  A    between atoms: _419  and  _420
REMARK  176  A    between atoms: _422  and  _424
REMARK  177  A    between atoms: _424  and  _425
REMARK  178  A    between atoms: _424  and  _427
REMARK  179  A    between atoms: _427  and  _428
REMARK  180  A    between atoms: _431  and  _433
REMARK  181  A    between atoms: _433  and  _434
REMARK  182  A    between atoms: _433  and  _436
REMARK  183  A    between atoms: _439  and  _441
REMARK  184  A    between atoms: _441  and  _442
REMARK  185  A    between atoms: _441  and  _444
REMARK  186  A    between atoms: _444  and  _445
REMARK  187  A    between atoms: _449  and  _450
REMARK  188  A    between atoms: _455  and  _457
REMARK  189  A    between atoms: _457  and  _458
REMARK  190  A    between atoms: _457  and  _460
REMARK  191  A    between atoms: _460  and  _461
REMARK  192  A    between atoms: _465  and  _466
REMARK  193  A    between atoms: _471  and  _473
REMARK  194  A    between atoms: _473  and  _474
REMARK  195  A    between atoms: _473  and  _476
REMARK  196  A    between atoms: _479  and  _481
REMARK  197  A    between atoms: _481  and  _482
REMARK  198  A    between atoms: _481  and  _484
REMARK  199  A    between atoms: _484  and  _485
REMARK  200  A    between atoms: _490  and  _492
REMARK  201  A    between atoms: _492  and  _493
REMARK  202  A    between atoms: _492  and  _495
REMARK  203  A    between atoms: _495  and  _496
REMARK  204  A    between atoms: _499  and  _501
REMARK  205  A    between atoms: _501  and  _502
REMARK  206  A    between atoms: _501  and  _504
REMARK  207  A    between atoms: _504  and  _505
REMARK  208  A    between atoms: _508  and  _510
REMARK  209  A    between atoms: _510  and  _511
REMARK  210  A    between atoms: _513  and  _515
REMARK  211  A    between atoms: _515  and  _516
REMARK  212  A    between atoms: _515  and  _518
REMARK  213  A    between atoms: _518  and  _519
REMARK  214  A    between atoms: _519  and  _520
REMARK  215  A    between atoms: _520  and  _521
REMARK  216  A    between atoms: _530  and  _532
REMARK  217  A    between atoms: _532  and  _533
REMARK  218  A    between atoms: _532  and  _535
REMARK  219  A    between atoms: _535  and  _536
REMARK                            x       y       z     vdW  Elec       q    Type
REMARK                         _______ _______ _______ _____ _____    ______ ____
ROOT
ATOM      1  NE  ARG A   1      -3.995  23.538  20.783  0.00  0.00    -0.265 N 
ATOM      2  CZ  ARG A   1      -2.880  22.880  20.480  0.00  0.00    +0.342 C 
ATOM      3  NH2 ARG A   1      -1.720  23.172  21.065  0.00  0.00    -0.292 N 
ATOM      4 HH21 ARG A   1      -1.672  23.929  21.776  0.00  0.00    +0.255 HD
ATOM      5 HH22 ARG A   1      -0.862  22.643  20.811  0.00  0.00    +0.255 HD
ATOM      6  NH1 ARG A   1      -2.919  21.912  19.577  0.00  0.00    -0.292 N 
ATOM      7 HH11 ARG A   1      -2.052  21.392  19.334  0.00  0.00    +0.255 HD
ATOM      8 HH12 ARG A   1      -3.817  21.672  19.111  0.00  0.00    +0.255 HD
ATOM      9  HE  ARG A   1      -4.873  23.265  20.297  0.00  0.00    +0.259 HD
ENDROOT
BRANCH   1  10
ATOM     10  CD  ARG A   1      -4.056  24.628  21.765  0.00  0.00    +0.174 C 
BRANCH  10  11
ATOM     11  CG  ARG A   1      -5.048  25.672  21.312  0.00  0.00    +0.045 C 
BRANCH  11  12
ATOM     12  CB  ARG A   1      -5.149  26.866  22.268  0.00  0.00    +0.029 C 
BRANCH  12  13
ATOM     13  CA  ARG A   1      -6.430  27.659  21.967  0.00  0.00    +0.133 C 
BRANCH  13  14
ATOM     14  N   ARG A   1      -6.379  28.239  20.623  0.00  0.00    -0.239 NA
ATOM     15  H   ARG A   1      -5.567  28.018  20.012  0.00  0.00    +0.142 HD
ENDBRANCH  13  14
BRANCH  13  16
ATOM     16  C   ARG A   1      -6.590  28.721  23.050  0.00  0.00    +0.224 C 
ATOM     17  O   ARG A   1      -5.812  29.684  23.019  0.00  0.00    -0.287 OA
ENDBRANCH  13  16
ENDBRANCH  12  13
ENDBRANCH  11  12
ENDBRANCH  10  11
ENDBRANCH   1  10
TORSDOF 6
REMARK  Name = ../refined-set-2016/1zpa/1zpa_pocket.pdb
REMARK  219 active torsions:
REMARK  status: ('A' for Active; 'I' for Inactive)
REMARK    1  A    between atoms: _1  and  _3
REMARK    2  A    between atoms: _3  and  _4
REMARK    3  A    between atoms: _3  and  _6
REMARK    4  A    between atoms: _6  and  _7
REMARK    5  A    between atoms: _7  and  _8
REMARK    6  A    between atoms: _8  and  _9
REMARK    7  A    between atoms: _18  and  _20
REMARK    8  A    between atoms: _20  and  _21
REMARK    9  A    between atoms: _20  and  _23
REMARK   10  A    between atoms: _23  and  _24
REMARK   11  A    between atoms: _27  and  _29
REMARK   12  A    between atoms: _29  and  _30
REMARK   13  A    between atoms: _29  and  _32
REMARK   14  A    between atoms: _32  and  _33
REMARK   15  A    between atoms: _36  and  _38
REMARK   16  A    between atoms: _38  and  _39
REMARK   17  A    between atoms: _38  and  _41
REMARK   18  A    between atoms: _41  and  _42
REMARK   19  A    between atoms: _45  and  _47
REMARK   20  A    between atoms: _47  and  _48
REMARK   21  A    between atoms: _47  and  _50
REMARK   22  A    between atoms: _50  and  _51
REMARK   23  A    between atoms: _54  and  _56
REMARK   24  A    between atoms: _56  and  _57
REMARK   25  A    between atoms: _59  and  _61
REMARK   26  A    between atoms: _61  and  _62
REMARK   27  A    between atoms: _65  and  _67
REMARK   28  A    between atoms: _67  and  _68
REMARK   29  A    between atoms: _67  and  _70
REMARK   30  A    between atoms: _70  and  _71
REMARK   31  A    between atoms: _74  and  _76
REMARK   32  A    between atoms: _76  and  _77
REMARK   33  A    between atoms: _76  and  _79
REMARK   34  A    between atoms: _79  and  _80
REMARK   35  A    between atoms: _83  and  _85
REMARK   36  A    between atoms: _85  and  _86
REMARK   37  A    between atoms: _85  and  _88
REMARK   38  A    between atoms: _88  and  _89
REMARK   39  A    between atoms: _92  and  _94
REMARK   40  A    between atoms: _94  and  _95
REMARK   41  A    between atoms: _94  and  _97
REMARK   42  A    between atoms: _100  and  _102
REMARK   43  A    between atoms: _102  and  _103
REMARK   44  A    between atoms: _102  and  _105
REMARK   45  A    between atoms: _105  and  _106
REMARK   46  A    between atoms: _106  and  _107
REMARK   47  A    between atoms: _109  and  _111
REMARK   48  A    between atoms: _111  and  _112
REMARK   49  A    between atoms: _111  and  _114
REMARK   50  A    between atoms: _114  and  _115
REMARK   51  A    between atoms: _118  and  _120
REMARK   52  A    between atoms: _120  and  _121
REMARK   53  A    between atoms: _123  and  _125
REMARK   54  A    between atoms: _125  and  _126
REMARK   55  A    between atoms: _128  and  _130
REMARK   56  A    between atoms: _130  and  _131
REMARK   57  A    between atoms: _130  and  _133
REMARK   58  A    between atoms: _133  and  _134
REMARK   59  A    between atoms: _137  and  _139
REMARK   60  A    between atoms: _139  and  _140
REMARK   61  A    between atoms: _142  and  _144
REMARK   62  A    between atoms: _144  and  _145
REMARK   63  A    between atoms: _147  and  _149
REMARK   64  A    between atoms: _149  and  _150
REMARK   65  A    between atoms: _149  and  _152
REMARK   66  A    between atoms: _152  and  _153
REMARK   67  A    between atoms: _159  and  _161
REMARK   68  A    between atoms: _161  and  _162
REMARK   69  A    between atoms: _161  and  _164
REMARK   70  A    between atoms: _164  and  _165
REMARK   71  A    between atoms: _168  and  _170
REMARK   72  A    between atoms: _170  and  _171
REMARK   73  A    between atoms: _170  and  _173
REMARK   74  A    between atoms: _173  and  _174
REMARK   75  A    between atoms: _177  and  _179
REMARK   76  A    between atoms: _179  and  _180
REMARK   77  A    between atoms: _179  and  _182
REMARK   78  A    between atoms: _182  and  _183
REMARK   79  A    between atoms: _187  and  _188
REMARK   80  A    between atoms: _193  and  _195
REMARK   81  A    between atoms: _195  and  _196
REMARK   82  A    between atoms: _195  and  _198
REMARK   83  A    between atoms: _201  and  _203
REMARK   84  A    between atoms: _203  and  _204
REMARK   85  A    between atoms: _203  and  _206
REMARK   86  A    between atoms: _206  and  _207
REMARK   87  A    between atoms: _212  and  _214
REMARK   88  A    between atoms: _214  and  _215
REMARK   89  A    between atoms: _214  and  _217
REMARK   90  A    between atoms: _217  and  _218
REMARK   91  A    between atoms: _221  and  _223
REMARK   92  A    between atoms: _223  and  _224
REMARK   93  A    between atoms: _226  and  _228
REMARK   94  A    between atoms: _228  and  _229
REMARK   95  A    between atoms: _228  and  _231
REMARK   96  A    between atoms: _231  and  _232
REMARK   97  A    between atoms: _232  and  _233
REMARK   98  A    between atoms: _233  and  _234
REMARK   99  A    between atoms: _243  and  _245
REMARK  100  A    between atoms: _245  and  _246
REMARK  101  A    between atoms: _245  and  _248
REMARK  102  A    between atoms: _248  and  _249
REMARK  103  A    between atoms: _254  and  _256
REMARK  104  A    between atoms: _256  and  _257
REMARK  105  A    between atoms: _256  and  _259
REMARK  106  A    between atoms: _259  and  _260
REMARK  107  A    between atoms: _260  and  _261
REMARK  108  A    between atoms: _261  and  _262
REMARK  109  A    between atoms: _271  and  _273
REMARK  110  A    between atoms: _273  and  _274
REMARK  111  A    between atoms: _273  and  _276
REMARK  112  A    between atoms: _276  and  _277
REMARK  113  A    between atoms: _280  and  _282
REMARK  114  A    between atoms: _282  and  _283
REMARK  115  A    between atoms: _282  and  _285
REMARK  116  A    between atoms: _285  and  _286
REMARK  117  A    between atoms: _289  and  _291
REMARK  118  A    between atoms: _291  and  _292
REMARK  119  A    between atoms: _291  and  _294
REMARK  120  A    between atoms: _294  and  _295
REMARK  121  A    between atoms: _298  and  _300
REMARK  122  A    between atoms: _300  and  _301
REMARK  123  A    between atoms: _300  and  _303
REMARK  124  A    between atoms: _303  and  _304
REMARK  125  A    between atoms: _307  and  _309
REMARK  126  A    between atoms: _309  and  _310
REMARK  127  A    between atoms: _309  and  _312
REMARK  128  A    between atoms: _312  and  _313
REMARK  129  A    between atoms: _316  and  _318
REMARK  130  A    between atoms: _318  and  _319
REMARK  131  A    between atoms: _321  and  _323
REMARK  132  A    between atoms: _323  and  _324
REMARK  133  A    between atoms: _327  and  _329
REMARK  134  A    between atoms: _329  and  _330
REMARK  135  A    between atoms: _329  and  _332
REMARK  136  A    between atoms: _332  and  _333
REMARK  137  A    between atoms: _336  and  _338
REMARK  138  A    between atoms: _338  and  _339
REMARK  139  A    between atoms: _338  and  _341
REMARK  140  A    between atoms: _341  and  _342
REMARK  141  A    between atoms: _345  and  _347
REMARK  142  A    between atoms: _347  and  _348
REMARK  143  A    between atoms: _347  and  _350
REMARK  144  A    between atoms: _350  and  _351
REMARK  145  A    between atoms: _354  and  _356
REMARK  146  A    between atoms: _356  and  _357
REMARK  147  A    between atoms: _356  and  _359
REMARK  148  A    between atoms: _362  and  _364
REMARK  149  A    between atoms: _364  and  _365
REMARK  150  A    between atoms: _364  and  _367
REMARK  151  A    between atoms: _367  and  _368
REMARK  152  A    between atoms: _368  and  _369
REMARK  153  A    between atoms: _369  and  _370
REMARK  154  A    between atoms: _370  and  _371
REMARK  155  A    between atoms: _375  and  _377
REMARK  156  A    between atoms: _377  and  _378
REMARK  157  A    between atoms: _377  and  _380
REMARK  158  A    between atoms: _380  and  _381
REMARK  159  A    between atoms: _381  and  _382
REMARK  160  A    between atoms: _384  and  _386
REMARK  161  A    between atoms: _386  and  _387
REMARK  162  A    between atoms: _386  and  _389
REMARK  163  A    between atoms: _389  and  _390
REMARK  164  A    between atoms: _393  and  _395
REMARK  165  A    between atoms: _395  and  _396
REMARK  166  A    between atoms: _398  and  _400
REMARK  167  A    between atoms: _400  and  _401
REMARK  168  A    between atoms: _403  and  _405
REMARK  169  A    between atoms: _405  and  _406
REMARK  170  A    between atoms: _405  and  _408
REMARK  171  A    between atoms: _408  and  _409
REMARK  172  A    between atoms: _412  and  _414
REMARK  173  A    between atoms: _414  and  _415
REMARK  174  A    between atoms: _417  and  _419
REMARK  175  A    between atoms: _419  and  _420
REMARK  176  A    between atoms: _422  and  _424
REMARK  177  A    between atoms: _424  and  _425
REMARK  178  A    between atoms: _424  and  _427
REMARK  179  A    between atoms: _427  and  _428
REMARK  180  A    between atoms: _431  and  _433
REMARK  181  A    between atoms: _433  and  _434
REMARK  182  A    between atoms: _433  and  _436
REMARK  183  A    between atoms: _439  and  _441
REMARK  184  A    between atoms: _441  and  _442
REMARK  185  A    between atoms: _441  and  _444
REMARK  186  A    between atoms: _444  and  _445
REMARK  187  A    between atoms: _449  and  _450
REMARK  188  A    between atoms: _455  and  _457
REMARK  189  A    between atoms: _457  and  _458
REMARK  190  A    between atoms: _457  and  _460
REMARK  191  A    between atoms: _460  and  _461
REMARK  192  A    between atoms: _465  and  _466
REMARK  193  A    between atoms: _471  and  _473
REMARK  194  A    between atoms: _473  and  _474
REMARK  195  A    between atoms: _473  and  _476
REMARK  196  A    between atoms: _479  and  _481
REMARK  197  A    between atoms: _481  and  _482
REMARK  198  A    between atoms: _481  and  _484
REMARK  199  A    between atoms: _484  and  _485
REMARK  200  A    between atoms: _490  and  _492
REMARK  201  A    between atoms: _492  and  _493
REMARK  202  A    between atoms: _492  and  _495
REMARK  203  A    between atoms: _495  and  _496
REMARK  204  A    between atoms: _499  and  _501
REMARK  205  A    between atoms: _501  and  _502
REMARK  206  A    between atoms: _501  and  _504
REMARK  207  A    between atoms: _504  and  _505
REMARK  208  A    between atoms: _508  and  _510
REMARK  209  A    between atoms: _510  and  _511
REMARK  210  A    between atoms: _513  and  _515
REMARK  211  A    between atoms: _515  and  _516
REMARK  212  A    between atoms: _515  and  _518
REMARK  213  A    between atoms: _518  and  _519
REMARK  214  A    between atoms: _519  and  _520
REMARK  215  A    between atoms: _520  and  _521
REMARK  216  A    between atoms: _530  and  _532
REMARK  217  A    between atoms: _532  and  _533
REMARK  218  A    between atoms: _532  and  _535
REMARK  219  A    between atoms: _535  and  _536
REMARK                            x       y       z     vdW  Elec       q    Type
REMARK                         _______ _______ _______ _____ _____    ______ ____
ROOT
ATOM      1  C   GLY A   5     -13.576  18.794  30.015  0.00  0.00    +0.243 C 
ATOM      2  N   ALA A   6     -12.966  19.517  30.948  0.00  0.00    -0.297 N 
ATOM      3  H   ALA A   6     -12.988  20.553  30.856  0.00  0.00    +0.150 HD
ATOM      4  O   GLY A   5     -13.612  17.564  30.033  0.00  0.00    -0.273 OA
ENDROOT
BRANCH   2   5
ATOM      5  CA  ALA A   6     -12.270  18.947  32.090  0.00  0.00    +0.149 C 
ATOM      6  CB  ALA A   6     -10.873  19.572  32.186  0.00  0.00    +0.031 C 
BRANCH   5   7
ATOM      7  C   ALA A   6     -13.033  19.189  33.384  0.00  0.00    +0.241 C 
ATOM      8  N   ASP A   7     -13.457  18.162  34.120  0.00  0.00    -0.297 N 
ATOM      9  H   ASP A   7     -13.344  17.186  33.780  0.00  0.00    +0.150 HD
ATOM     10  O   ALA A   6     -13.293  20.331  33.771  0.00  0.00    -0.273 OA
BRANCH   8  11
ATOM     11  CA  ASP A   7     -14.084  18.430  35.414  0.00  0.00    +0.160 C 
BRANCH  11  12
ATOM     12  C   ASP A   7     -13.088  19.097  36.369  0.00  0.00    +0.241 C 
ATOM     13  O   ASP A   7     -13.437  19.919  37.201  0.00  0.00    -0.273 OA
ATOM     14  N   ASP A   8     -11.842  18.668  36.195  0.00  0.00    -0.297 N 
ATOM     15  H   ASP A   8     -11.642  18.137  35.323  0.00  0.00    +0.150 HD
BRANCH  14  16
ATOM     16  CA  ASP A   8     -10.739  18.873  37.109  0.00  0.00    +0.160 C 
BRANCH  16  17
ATOM     17  C   ASP A   8      -9.574  19.603  36.445  0.00  0.00    +0.241 C 
ATOM     18  N   THR A   9      -8.756  20.197  37.299  0.00  0.00    -0.295 N 
ATOM     19  H   THR A   9      -8.967  20.121  38.314  0.00  0.00    +0.150 HD
ATOM     20  O   ASP A   8      -9.457  19.611  35.220  0.00  0.00    -0.273 OA
BRANCH  18  21
ATOM     21  CA  THR A   9      -7.568  20.957  36.895  0.00  0.00    +0.176 C 
BRANCH  21  22
ATOM     22  C   THR A   9      -6.356  20.059  37.029  0.00  0.00    +0.243 C 
ATOM     23  O   THR A   9      -6.088  19.494  38.094  0.00  0.00    -0.273 OA
ATOM     24  N   VAL A  10      -5.624  19.889  35.944  0.00  0.00    -0.298 N 
ATOM     25  H   VAL A  10      -5.863  20.400  35.070  0.00  0.00    +0.150 HD
BRANCH  24  26
ATOM     26  CA  VAL A  10      -4.481  18.986  35.969  0.00  0.00    +0.137 C 
BRANCH  26  27
ATOM     27  CB  VAL A  10      -4.761  17.705  35.161  0.00  0.00    +0.026 C 
ATOM     28  CG2 VAL A  10      -3.802  16.591  35.574  0.00  0.00    +0.002 C 
ATOM     29  CG1 VAL A  10      -6.206  17.245  35.318  0.00  0.00    +0.002 C 
ENDBRANCH  26  27
BRANCH  26  30
ATOM     30  C   VAL A  10      -3.249  19.683  35.394  0.00  0.00    +0.227 C 
ATOM     31  O   VAL A  10      -3.279  20.128  34.249  0.00  0.00    -0.286 OA
ENDBRANCH  26  30
ENDBRANCH  24  26
ENDBRANCH  21  22
BRANCH  21  32
ATOM     32  CB  THR A   9      -7.450  22.224  37.757  0.00  0.00    +0.137 C 
ATOM     33  CG2 THR A   9      -6.187  23.031  37.482  0.00  0.00    +0.034 C 
BRANCH  32  34
ATOM     34  OG1 THR A   9      -8.565  23.068  37.427  0.00  0.00    -0.382 OA
ATOM     35  HG1 THR A   9      -9.409  22.590  37.624  0.00  0.00    +0.210 HD
ENDBRANCH  32  34
ENDBRANCH  21  32
ENDBRANCH  18  21
ENDBRANCH  16  17
BRANCH  16  36
ATOM     36  CB  ASP A   8     -10.229  17.526  37.642  0.00  0.00    +0.143 C 
BRANCH  36  37
ATOM     37  CG  ASP A   8     -11.124  16.959  38.729  0.00  0.00    +0.367 C 
ATOM     38  OD2 ASP A   8     -11.880  17.743  39.327  0.00  0.00    -0.246 OA
ATOM     39  OD1 ASP A   8     -11.071  15.738  38.985  0.00  0.00    -0.246 OA
ENDBRANCH  36  37
ENDBRANCH  16  36
ENDBRANCH  14  16
ENDBRANCH  11  12
BRANCH  11  40
ATOM     40  CB  ASP A   7     -14.556  17.130  36.085  0.00  0.00    +0.143 C 
BRANCH  40  41
ATOM     41  CG  ASP A   7     -15.538  16.346  35.233  0.00  0.00    +0.367 C 
ATOM     42  OD2 ASP A   7     -15.579  15.101  35.331  0.00  0.00    -0.246 OA
ATOM     43  OD1 ASP A   7     -16.280  16.987  34.458  0.00  0.00    -0.246 OA
ENDBRANCH  40  41
ENDBRANCH  11  40
ENDBRANCH   8  11
ENDBRANCH   5   7
ENDBRANCH   2   5
BRANCH   1  44
ATOM     44  CA  GLY A   5     -14.253  19.546  28.880  0.00  0.00    +0.176 C 
BRANCH  44  47
ATOM     45  C   THR A   4     -14.887  21.767  29.634  0.00  0.00    +0.243 C 
ATOM     46  O   THR A   4     -15.876  21.341  30.238  0.00  0.00    -0.273 OA
ATOM     47  N   GLY A   5     -14.048  20.986  28.954  0.00  0.00    -0.295 N 
ATOM     48  H   GLY A   5     -13.233  21.412  28.468  0.00  0.00    +0.150 HD
BRANCH  45  49
ATOM     49  CA  THR A   4     -14.595  23.268  29.630  0.00  0.00    +0.176 C 
BRANCH  49  52
ATOM     50  C   ASP A   3     -12.183  23.145  29.872  0.00  0.00    +0.241 C 
ATOM     51  O   ASP A   3     -12.265  22.477  30.909  0.00  0.00    -0.273 OA
ATOM     52  N   THR A   4     -13.241  23.557  29.164  0.00  0.00    -0.295 N 
ATOM     53  H   THR A   4     -13.099  24.085  28.279  0.00  0.00    +0.150 HD
BRANCH  50  54
ATOM     54  CA  ASP A   3     -10.806  23.520  29.346  0.00  0.00    +0.160 C 
BRANCH  54  56
ATOM     55  C   LEU A   2     -10.058  25.810  29.082  0.00  0.00    +0.241 C 
ATOM     56  N   ASP A   3     -10.350  24.796  29.898  0.00  0.00    -0.297 N 
ATOM     57  H   ASP A   3     -10.254  24.912  30.927  0.00  0.00    +0.150 HD
ATOM     58  O   LEU A   2     -10.362  25.832  27.887  0.00  0.00    -0.273 OA
BRANCH  55  59
ATOM     59  CA  LEU A   2      -9.253  26.960  29.687  0.00  0.00    +0.149 C 
BRANCH  59  62
ATOM     60  C   LEU A   1      -7.039  25.944  29.541  0.00  0.00    +0.238 C 
ATOM     61  O   LEU A   1      -7.258  25.189  30.493  0.00  0.00    -0.274 OA
ATOM     62  N   LEU A   2      -7.896  26.884  29.146  0.00  0.00    -0.297 N 
ATOM     63  H   LEU A   2      -7.593  27.581  28.436  0.00  0.00    +0.150 HD
BRANCH  60  64
ATOM     64  CA  LEU A   1      -5.734  25.825  28.756  0.00  0.00    +0.145 C 
BRANCH  64  65
ATOM     65  N   LEU A   1      -4.560  25.887  29.614  0.00  0.00    -0.238 NA
ATOM     66  H   LEU A   1      -4.217  24.988  30.008  0.00  0.00    +0.142 HD
ENDBRANCH  64  65
BRANCH  64  67
ATOM     67  CB  LEU A   1      -5.755  24.502  28.022  0.00  0.00    +0.026 C 
BRANCH  67  68
ATOM     68  CG  LEU A   1      -5.561  24.311  26.538  0.00  0.00    +0.002 C 
ATOM     69  CD2 LEU A   1      -6.171  22.953  26.151  0.00  0.00    +0.000 C 
ATOM     70  CD1 LEU A   1      -6.158  25.427  25.700  0.00  0.00    +0.000 C 
ENDBRANCH  67  68
ENDBRANCH  64  67
ENDBRANCH  60  64
ENDBRANCH  59  62
BRANCH  59  71
ATOM     71  CB  LEU A   2      -9.891  28.303  29.383  0.00  0.00    +0.029 C 
BRANCH  71  72
ATOM     72  CG  LEU A   2      -9.123  29.535  29.877  0.00  0.00    +0.002 C 
ATOM     73  CD2 LEU A   2      -8.877  29.408  31.367  0.00  0.00    +0.000 C 
ATOM     74  CD1 LEU A   2      -9.881  30.816  29.528  0.00  0.00    +0.000 C 
ENDBRANCH  71  72
ENDBRANCH  59  71
ENDBRANCH  55  59
ENDBRANCH  54  56
BRANCH  54  75
ATOM     75  CB  ASP A   3      -9.784  22.430  29.675  0.00  0.00    +0.143 C 
BRANCH  75  76
ATOM     76  CG  ASP A   3     -10.052  21.113  28.971  0.00  0.00    +0.367 C 
ATOM     77  OD2 ASP A   3      -9.153  20.254  28.883  0.00  0.00    -0.246 OA
ATOM     78  OD1 ASP A   3     -11.181  20.935  28.473  0.00  0.00    -0.246 OA
ENDBRANCH  75  76
ENDBRANCH  54  75
ENDBRANCH  50  54
ENDBRANCH  49  52
BRANCH  49  79
ATOM     79  CB  THR A   4     -15.684  23.956  28.795  0.00  0.00    +0.137 C 
ATOM     80  CG2 THR A   4     -15.565  25.480  28.894  0.00  0.00    +0.034 C 
BRANCH  79  81
ATOM     81  OG1 THR A   4     -15.514  23.606  27.408  0.00  0.00    -0.382 OA
ATOM     82  HG1 THR A   4     -15.588  22.624  27.305  0.00  0.00    +0.210 HD
ENDBRANCH  79  81
ENDBRANCH  49  79
ENDBRANCH  45  49
ENDBRANCH  44  47
ENDBRANCH   1  44
TORSDOF 35
REMARK  Name = ../refined-set-2016/1zpa/1zpa_pocket.pdb
REMARK  219 active torsions:
REMARK  status: ('A' for Active; 'I' for Inactive)
REMARK    1  A    between atoms: _1  and  _3
REMARK    2  A    between atoms: _3  and  _4
REMARK    3  A    between atoms: _3  and  _6
REMARK    4  A    between atoms: _6  and  _7
REMARK    5  A    between atoms: _7  and  _8
REMARK    6  A    between atoms: _8  and  _9
REMARK    7  A    between atoms: _18  and  _20
REMARK    8  A    between atoms: _20  and  _21
REMARK    9  A    between atoms: _20  and  _23
REMARK   10  A    between atoms: _23  and  _24
REMARK   11  A    between atoms: _27  and  _29
REMARK   12  A    between atoms: _29  and  _30
REMARK   13  A    between atoms: _29  and  _32
REMARK   14  A    between atoms: _32  and  _33
REMARK   15  A    between atoms: _36  and  _38
REMARK   16  A    between atoms: _38  and  _39
REMARK   17  A    between atoms: _38  and  _41
REMARK   18  A    between atoms: _41  and  _42
REMARK   19  A    between atoms: _45  and  _47
REMARK   20  A    between atoms: _47  and  _48
REMARK   21  A    between atoms: _47  and  _50
REMARK   22  A    between atoms: _50  and  _51
REMARK   23  A    between atoms: _54  and  _56
REMARK   24  A    between atoms: _56  and  _57
REMARK   25  A    between atoms: _59  and  _61
REMARK   26  A    between atoms: _61  and  _62
REMARK   27  A    between atoms: _65  and  _67
REMARK   28  A    between atoms: _67  and  _68
REMARK   29  A    between atoms: _67  and  _70
REMARK   30  A    between atoms: _70  and  _71
REMARK   31  A    between atoms: _74  and  _76
REMARK   32  A    between atoms: _76  and  _77
REMARK   33  A    between atoms: _76  and  _79
REMARK   34  A    between atoms: _79  and  _80
REMARK   35  A    between atoms: _83  and  _85
REMARK   36  A    between atoms: _85  and  _86
REMARK   37  A    between atoms: _85  and  _88
REMARK   38  A    between atoms: _88  and  _89
REMARK   39  A    between atoms: _92  and  _94
REMARK   40  A    between atoms: _94  and  _95
REMARK   41  A    between atoms: _94  and  _97
REMARK   42  A    between atoms: _100  and  _102
REMARK   43  A    between atoms: _102  and  _103
REMARK   44  A    between atoms: _102  and  _105
REMARK   45  A    between atoms: _105  and  _106
REMARK   46  A    between atoms: _106  and  _107
REMARK   47  A    between atoms: _109  and  _111
REMARK   48  A    between atoms: _111  and  _112
REMARK   49  A    between atoms: _111  and  _114
REMARK   50  A    between atoms: _114  and  _115
REMARK   51  A    between atoms: _118  and  _120
REMARK   52  A    between atoms: _120  and  _121
REMARK   53  A    between atoms: _123  and  _125
REMARK   54  A    between atoms: _125  and  _126
REMARK   55  A    between atoms: _128  and  _130
REMARK   56  A    between atoms: _130  and  _131
REMARK   57  A    between atoms: _130  and  _133
REMARK   58  A    between atoms: _133  and  _134
REMARK   59  A    between atoms: _137  and  _139
REMARK   60  A    between atoms: _139  and  _140
REMARK   61  A    between atoms: _142  and  _144
REMARK   62  A    between atoms: _144  and  _145
REMARK   63  A    between atoms: _147  and  _149
REMARK   64  A    between atoms: _149  and  _150
REMARK   65  A    between atoms: _149  and  _152
REMARK   66  A    between atoms: _152  and  _153
REMARK   67  A    between atoms: _159  and  _161
REMARK   68  A    between atoms: _161  and  _162
REMARK   69  A    between atoms: _161  and  _164
REMARK   70  A    between atoms: _164  and  _165
REMARK   71  A    between atoms: _168  and  _170
REMARK   72  A    between atoms: _170  and  _171
REMARK   73  A    between atoms: _170  and  _173
REMARK   74  A    between atoms: _173  and  _174
REMARK   75  A    between atoms: _177  and  _179
REMARK   76  A    between atoms: _179  and  _180
REMARK   77  A    between atoms: _179  and  _182
REMARK   78  A    between atoms: _182  and  _183
REMARK   79  A    between atoms: _187  and  _188
REMARK   80  A    between atoms: _193  and  _195
REMARK   81  A    between atoms: _195  and  _196
REMARK   82  A    between atoms: _195  and  _198
REMARK   83  A    between atoms: _201  and  _203
REMARK   84  A    between atoms: _203  and  _204
REMARK   85  A    between atoms: _203  and  _206
REMARK   86  A    between atoms: _206  and  _207
REMARK   87  A    between atoms: _212  and  _214
REMARK   88  A    between atoms: _214  and  _215
REMARK   89  A    between atoms: _214  and  _217
REMARK   90  A    between atoms: _217  and  _218
REMARK   91  A    between atoms: _221  and  _223
REMARK   92  A    between atoms: _223  and  _224
REMARK   93  A    between atoms: _226  and  _228
REMARK   94  A    between atoms: _228  and  _229
REMARK   95  A    between atoms: _228  and  _231
REMARK   96  A    between atoms: _231  and  _232
REMARK   97  A    between atoms: _232  and  _233
REMARK   98  A    between atoms: _233  and  _234
REMARK   99  A    between atoms: _243  and  _245
REMARK  100  A    between atoms: _245  and  _246
REMARK  101  A    between atoms: _245  and  _248
REMARK  102  A    between atoms: _248  and  _249
REMARK  103  A    between atoms: _254  and  _256
REMARK  104  A    between atoms: _256  and  _257
REMARK  105  A    between atoms: _256  and  _259
REMARK  106  A    between atoms: _259  and  _260
REMARK  107  A    between atoms: _260  and  _261
REMARK  108  A    between atoms: _261  and  _262
REMARK  109  A    between atoms: _271  and  _273
REMARK  110  A    between atoms: _273  and  _274
REMARK  111  A    between atoms: _273  and  _276
REMARK  112  A    between atoms: _276  and  _277
REMARK  113  A    between atoms: _280  and  _282
REMARK  114  A    between atoms: _282  and  _283
REMARK  115  A    between atoms: _282  and  _285
REMARK  116  A    between atoms: _285  and  _286
REMARK  117  A    between atoms: _289  and  _291
REMARK  118  A    between atoms: _291  and  _292
REMARK  119  A    between atoms: _291  and  _294
REMARK  120  A    between atoms: _294  and  _295
REMARK  121  A    between atoms: _298  and  _300
REMARK  122  A    between atoms: _300  and  _301
REMARK  123  A    between atoms: _300  and  _303
REMARK  124  A    between atoms: _303  and  _304
REMARK  125  A    between atoms: _307  and  _309
REMARK  126  A    between atoms: _309  and  _310
REMARK  127  A    between atoms: _309  and  _312
REMARK  128  A    between atoms: _312  and  _313
REMARK  129  A    between atoms: _316  and  _318
REMARK  130  A    between atoms: _318  and  _319
REMARK  131  A    between atoms: _321  and  _323
REMARK  132  A    between atoms: _323  and  _324
REMARK  133  A    between atoms: _327  and  _329
REMARK  134  A    between atoms: _329  and  _330
REMARK  135  A    between atoms: _329  and  _332
REMARK  136  A    between atoms: _332  and  _333
REMARK  137  A    between atoms: _336  and  _338
REMARK  138  A    between atoms: _338  and  _339
REMARK  139  A    between atoms: _338  and  _341
REMARK  140  A    between atoms: _341  and  _342
REMARK  141  A    between atoms: _345  and  _347
REMARK  142  A    between atoms: _347  and  _348
REMARK  143  A    between atoms: _347  and  _350
REMARK  144  A    between atoms: _350  and  _351
REMARK  145  A    between atoms: _354  and  _356
REMARK  146  A    between atoms: _356  and  _357
REMARK  147  A    between atoms: _356  and  _359
REMARK  148  A    between atoms: _362  and  _364
REMARK  149  A    between atoms: _364  and  _365
REMARK  150  A    between atoms: _364  and  _367
REMARK  151  A    between atoms: _367  and  _368
REMARK  152  A    between atoms: _368  and  _369
REMARK  153  A    between atoms: _369  and  _370
REMARK  154  A    between atoms: _370  and  _371
REMARK  155  A    between atoms: _375  and  _377
REMARK  156  A    between atoms: _377  and  _378
REMARK  157  A    between atoms: _377  and  _380
REMARK  158  A    between atoms: _380  and  _381
REMARK  159  A    between atoms: _381  and  _382
REMARK  160  A    between atoms: _384  and  _386
REMARK  161  A    between atoms: _386  and  _387
REMARK  162  A    between atoms: _386  and  _389
REMARK  163  A    between atoms: _389  and  _390
REMARK  164  A    between atoms: _393  and  _395
REMARK  165  A    between atoms: _395  and  _396
REMARK  166  A    between atoms: _398  and  _400
REMARK  167  A    between atoms: _400  and  _401
REMARK  168  A    between atoms: _403  and  _405
REMARK  169  A    between atoms: _405  and  _406
REMARK  170  A    between atoms: _405  and  _408
REMARK  171  A    between atoms: _408  and  _409
REMARK  172  A    between atoms: _412  and  _414
REMARK  173  A    between atoms: _414  and  _415
REMARK  174  A    between atoms: _417  and  _419
REMARK  175  A    between atoms: _419  and  _420
REMARK  176  A    between atoms: _422  and  _424
REMARK  177  A    between atoms: _424  and  _425
REMARK  178  A    between atoms: _424  and  _427
REMARK  179  A    between atoms: _427  and  _428
REMARK  180  A    between atoms: _431  and  _433
REMARK  181  A    between atoms: _433  and  _434
REMARK  182  A    between atoms: _433  and  _436
REMARK  183  A    between atoms: _439  and  _441
REMARK  184  A    between atoms: _441  and  _442
REMARK  185  A    between atoms: _441  and  _444
REMARK  186  A    between atoms: _444  and  _445
REMARK  187  A    between atoms: _449  and  _450
REMARK  188  A    between atoms: _455  and  _457
REMARK  189  A    between atoms: _457  and  _458
REMARK  190  A    between atoms: _457  and  _460
REMARK  191  A    between atoms: _460  and  _461
REMARK  192  A    between atoms: _465  and  _466
REMARK  193  A    between atoms: _471  and  _473
REMARK  194  A    between atoms: _473  and  _474
REMARK  195  A    between atoms: _473  and  _476
REMARK  196  A    between atoms: _479  and  _481
REMARK  197  A    between atoms: _481  and  _482
REMARK  198  A    between atoms: _481  and  _484
REMARK  199  A    between atoms: _484  and  _485
REMARK  200  A    between atoms: _490  and  _492
REMARK  201  A    between atoms: _492  and  _493
REMARK  202  A    between atoms: _492  and  _495
REMARK  203  A    between atoms: _495  and  _496
REMARK  204  A    between atoms: _499  and  _501
REMARK  205  A    between atoms: _501  and  _502
REMARK  206  A    between atoms: _501  and  _504
REMARK  207  A    between atoms: _504  and  _505
REMARK  208  A    between atoms: _508  and  _510
REMARK  209  A    between atoms: _510  and  _511
REMARK  210  A    between atoms: _513  and  _515
REMARK  211  A    between atoms: _515  and  _516
REMARK  212  A    between atoms: _515  and  _518
REMARK  213  A    between atoms: _518  and  _519
REMARK  214  A    between atoms: _519  and  _520
REMARK  215  A    between atoms: _520  and  _521
REMARK  216  A    between atoms: _530  and  _532
REMARK  217  A    between atoms: _532  and  _533
REMARK  218  A    between atoms: _532  and  _535
REMARK  219  A    between atoms: _535  and  _536
REMARK                            x       y       z     vdW  Elec       q    Type
REMARK                         _______ _______ _______ _____ _____    ______ ____
ROOT
ATOM      1  CA  ILE A   5      -8.730  10.088  25.771  0.00  0.00    +0.149 C 
ENDROOT
BRANCH   1   4
ATOM      2  C   GLY A   4      -8.974  10.201  28.150  0.00  0.00    +0.243 C 
ATOM      3  O   GLY A   4      -9.253   9.004  28.147  0.00  0.00    -0.273 OA
ATOM      4  N   ILE A   5      -8.775  10.866  27.015  0.00  0.00    -0.297 N 
ATOM      5  H   ILE A   5      -8.656  11.899  27.009  0.00  0.00    +0.150 HD
BRANCH   2   6
ATOM      6  CA  GLY A   4      -8.826  10.937  29.463  0.00  0.00    +0.176 C 
BRANCH   6   9
ATOM      7  C   GLY A   3      -9.244  10.355  31.798  0.00  0.00    +0.243 C 
ATOM      8  O   GLY A   3      -9.561  11.518  32.046  0.00  0.00    -0.273 OA
ATOM      9  N   GLY A   4      -8.901   9.988  30.567  0.00  0.00    -0.295 N 
ATOM     10  H   GLY A   4      -8.678   8.989  30.385  0.00  0.00    +0.150 HD
BRANCH   7  11
ATOM     11  CA  GLY A   3      -9.196   9.271  32.856  0.00  0.00    +0.176 C 
BRANCH  11  14
ATOM     12  C   ILE A   2      -7.793   9.813  34.792  0.00  0.00    +0.241 C 
ATOM     13  O   ILE A   2      -6.738   9.477  34.251  0.00  0.00    -0.273 OA
ATOM     14  N   GLY A   3      -8.978   9.768  34.201  0.00  0.00    -0.295 N 
ATOM     15  H   GLY A   3      -9.803  10.110  34.734  0.00  0.00    +0.150 HD
BRANCH  12  16
ATOM     16  CA  ILE A   2      -7.800  10.315  36.233  0.00  0.00    +0.148 C 
BRANCH  16  19
ATOM     17  C   MET A   1      -7.099   9.197  38.204  0.00  0.00    +0.238 C 
ATOM     18  O   MET A   1      -8.206   9.443  38.693  0.00  0.00    -0.274 OA
ATOM     19  N   ILE A   2      -6.738   9.657  37.005  0.00  0.00    -0.297 N 
ATOM     20  H   ILE A   2      -5.769   9.556  36.641  0.00  0.00    +0.150 HD
BRANCH  17  21
ATOM     21  CA  MET A   1      -6.111   8.328  38.970  0.00  0.00    +0.146 C 
BRANCH  21  22
ATOM     22  N   MET A   1      -6.042   8.729  40.363  0.00  0.00    -0.238 NA
ATOM     23  H   MET A   1      -6.910   8.682  40.934  0.00  0.00    +0.142 HD
ENDBRANCH  21  22
BRANCH  21  24
ATOM     24  CB  MET A   1      -6.559   6.874  38.832  0.00  0.00    +0.038 C 
BRANCH  24  25
ATOM     25  CG  MET A   1      -5.970   6.171  37.616  0.00  0.00    +0.060 C 
BRANCH  25  26
ATOM     26  SD  MET A   1      -4.863   4.840  38.135  0.00  0.00    -0.139 S 
ATOM     27  CE  MET A   1      -5.606   4.409  39.713  0.00  0.00    +0.069 C 
ENDBRANCH  25  26
ENDBRANCH  24  25
ENDBRANCH  21  24
ENDBRANCH  17  21
ENDBRANCH  16  19
BRANCH  16  28
ATOM     28  CB  ILE A   2      -7.700  11.840  36.262  0.00  0.00    +0.027 C 
ATOM     29  CG2 ILE A   2      -7.875  12.360  37.689  0.00  0.00    +0.002 C 
BRANCH  28  30
ATOM     30  CG1 ILE A   2      -6.431  12.447  35.663  0.00  0.00    +0.002 C 
ATOM     31  CD1 ILE A   2      -6.485  13.964  35.816  0.00  0.00    +0.000 C 
ENDBRANCH  28  30
ENDBRANCH  16  28
ENDBRANCH  12  16
ENDBRANCH  11  14
ENDBRANCH   7  11
ENDBRANCH   6   9
ENDBRANCH   2   6
ENDBRANCH   1   4
BRANCH   1  32
ATOM     32  C   ILE A   5      -7.462   9.261  25.789  0.00  0.00    +0.241 C 
ATOM     33  O   ILE A   5      -6.415   9.727  26.245  0.00  0.00    -0.273 OA
ATOM     34  N   GLY A   6      -7.409   8.013  25.333  0.00  0.00    -0.295 N 
ATOM     35  H   GLY A   6      -8.242   7.493  24.991  0.00  0.00    +0.150 HD
BRANCH  34  36
ATOM     36  CA  GLY A   6      -6.058   7.442  25.361  0.00  0.00    +0.176 C 
BRANCH  36  37
ATOM     37  C   GLY A   6      -5.824   6.602  26.593  0.00  0.00    +0.243 C 
ATOM     38  N   GLY A   7      -6.560   6.836  27.677  0.00  0.00    -0.295 N 
ATOM     39  H   GLY A   7      -7.236   7.626  27.691  0.00  0.00    +0.150 HD
ATOM     40  O   GLY A   6      -4.968   5.718  26.569  0.00  0.00    -0.273 OA
BRANCH  38  41
ATOM     41  CA  GLY A   7      -6.411   5.974  28.846  0.00  0.00    +0.176 C 
BRANCH  41  42
ATOM     42  C   GLY A   7      -6.313   6.762  30.137  0.00  0.00    +0.243 C 
ATOM     43  N   PHE A   8      -5.518   6.253  31.097  0.00  0.00    -0.297 N 
ATOM     44  H   PHE A   8      -4.966   5.395  30.896  0.00  0.00    +0.150 HD
ATOM     45  O   GLY A   7      -6.979   7.790  30.252  0.00  0.00    -0.273 OA
BRANCH  43  46
ATOM     46  CA  PHE A   8      -5.411   6.881  32.422  0.00  0.00    +0.153 C 
BRANCH  46  47
ATOM     47  C   PHE A   8      -4.024   7.394  32.792  0.00  0.00    +0.241 C 
ATOM     48  N   ILE A   9      -4.008   8.378  33.699  0.00  0.00    -0.298 N 
ATOM     49  H   ILE A   9      -4.894   8.840  33.988  0.00  0.00    +0.150 HD
ATOM     50  O   PHE A   8      -2.997   6.934  32.299  0.00  0.00    -0.273 OA
BRANCH  48  51
ATOM     51  CA  ILE A   9      -2.737   8.796  34.278  0.00  0.00    +0.137 C 
BRANCH  51  52
ATOM     52  CB  ILE A   9      -2.272  10.188  33.818  0.00  0.00    +0.026 C 
ATOM     53  CG2 ILE A   9      -2.072  10.203  32.312  0.00  0.00    +0.002 C 
BRANCH  52  54
ATOM     54  CG1 ILE A   9      -3.206  11.303  34.294  0.00  0.00    +0.002 C 
ATOM     55  CD1 ILE A   9      -2.616  12.694  34.233  0.00  0.00    +0.000 C 
ENDBRANCH  52  54
ENDBRANCH  51  52
BRANCH  51  56
ATOM     56  C   ILE A   9      -2.864   8.810  35.799  0.00  0.00    +0.227 C 
ATOM     57  O   ILE A   9      -3.958   8.995  36.322  0.00  0.00    -0.286 OA
ENDBRANCH  51  56
ENDBRANCH  48  51
ENDBRANCH  46  47
BRANCH  46  58
ATOM     58  CB  PHE A   8      -5.834   5.887  33.516  0.00  0.00    +0.055 C 
BRANCH  58  59
ATOM     59  CG  PHE A   8      -7.283   5.591  33.357  0.00  0.00    -0.020 A 
ATOM     60  CD2 PHE A   8      -8.180   6.061  34.318  0.00  0.00    -0.004 A 
ATOM     61  CE2 PHE A   8      -9.546   5.830  34.208  0.00  0.00    -0.000 A 
ATOM     62  CZ  PHE A   8     -10.026   5.127  33.133  0.00  0.00    -0.000 A 
ATOM     63  CE1 PHE A   8      -9.153   4.669  32.160  0.00  0.00    -0.000 A 
ATOM     64  CD1 PHE A   8      -7.789   4.905  32.276  0.00  0.00    -0.004 A 
ENDBRANCH  58  59
ENDBRANCH  46  58
ENDBRANCH  43  46
ENDBRANCH  41  42
ENDBRANCH  38  41
ENDBRANCH  36  37
ENDBRANCH  34  36
ENDBRANCH   1  32
BRANCH   1  65
ATOM     65  CB  ILE A   5      -8.773  10.995  24.539  0.00  0.00    +0.027 C 
ATOM     66  CG2 ILE A   5      -7.718  10.585  23.528  0.00  0.00    +0.002 C 
BRANCH  65  67
ATOM     67  CG1 ILE A   5     -10.145  11.057  23.852  0.00  0.00    +0.002 C 
ATOM     68  CD1 ILE A   5     -10.162  12.074  22.725  0.00  0.00    +0.000 C 
ENDBRANCH  65  67
ENDBRANCH   1  65
TORSDOF 29
REMARK  Name = ../refined-set-2016/1zpa/1zpa_pocket.pdb
REMARK  219 active torsions:
REMARK  status: ('A' for Active; 'I' for Inactive)
REMARK    1  A    between atoms: _1  and  _3
REMARK    2  A    between atoms: _3  and  _4
REMARK    3  A    between atoms: _3  and  _6
REMARK    4  A    between atoms: _6  and  _7
REMARK    5  A    between atoms: _7  and  _8
REMARK    6  A    between atoms: _8  and  _9
REMARK    7  A    between atoms: _18  and  _20
REMARK    8  A    between atoms: _20  and  _21
REMARK    9  A    between atoms: _20  and  _23
REMARK   10  A    between atoms: _23  and  _24
REMARK   11  A    between atoms: _27  and  _29
REMARK   12  A    between atoms: _29  and  _30
REMARK   13  A    between atoms: _29  and  _32
REMARK   14  A    between atoms: _32  and  _33
REMARK   15  A    between atoms: _36  and  _38
REMARK   16  A    between atoms: _38  and  _39
REMARK   17  A    between atoms: _38  and  _41
REMARK   18  A    between atoms: _41  and  _42
REMARK   19  A    between atoms: _45  and  _47
REMARK   20  A    between atoms: _47  and  _48
REMARK   21  A    between atoms: _47  and  _50
REMARK   22  A    between atoms: _50  and  _51
REMARK   23  A    between atoms: _54  and  _56
REMARK   24  A    between atoms: _56  and  _57
REMARK   25  A    between atoms: _59  and  _61
REMARK   26  A    between atoms: _61  and  _62
REMARK   27  A    between atoms: _65  and  _67
REMARK   28  A    between atoms: _67  and  _68
REMARK   29  A    between atoms: _67  and  _70
REMARK   30  A    between atoms: _70  and  _71
REMARK   31  A    between atoms: _74  and  _76
REMARK   32  A    between atoms: _76  and  _77
REMARK   33  A    between atoms: _76  and  _79
REMARK   34  A    between atoms: _79  and  _80
REMARK   35  A    between atoms: _83  and  _85
REMARK   36  A    between atoms: _85  and  _86
REMARK   37  A    between atoms: _85  and  _88
REMARK   38  A    between atoms: _88  and  _89
REMARK   39  A    between atoms: _92  and  _94
REMARK   40  A    between atoms: _94  and  _95
REMARK   41  A    between atoms: _94  and  _97
REMARK   42  A    between atoms: _100  and  _102
REMARK   43  A    between atoms: _102  and  _103
REMARK   44  A    between atoms: _102  and  _105
REMARK   45  A    between atoms: _105  and  _106
REMARK   46  A    between atoms: _106  and  _107
REMARK   47  A    between atoms: _109  and  _111
REMARK   48  A    between atoms: _111  and  _112
REMARK   49  A    between atoms: _111  and  _114
REMARK   50  A    between atoms: _114  and  _115
REMARK   51  A    between atoms: _118  and  _120
REMARK   52  A    between atoms: _120  and  _121
REMARK   53  A    between atoms: _123  and  _125
REMARK   54  A    between atoms: _125  and  _126
REMARK   55  A    between atoms: _128  and  _130
REMARK   56  A    between atoms: _130  and  _131
REMARK   57  A    between atoms: _130  and  _133
REMARK   58  A    between atoms: _133  and  _134
REMARK   59  A    between atoms: _137  and  _139
REMARK   60  A    between atoms: _139  and  _140
REMARK   61  A    between atoms: _142  and  _144
REMARK   62  A    between atoms: _144  and  _145
REMARK   63  A    between atoms: _147  and  _149
REMARK   64  A    between atoms: _149  and  _150
REMARK   65  A    between atoms: _149  and  _152
REMARK   66  A    between atoms: _152  and  _153
REMARK   67  A    between atoms: _159  and  _161
REMARK   68  A    between atoms: _161  and  _162
REMARK   69  A    between atoms: _161  and  _164
REMARK   70  A    between atoms: _164  and  _165
REMARK   71  A    between atoms: _168  and  _170
REMARK   72  A    between atoms: _170  and  _171
REMARK   73  A    between atoms: _170  and  _173
REMARK   74  A    between atoms: _173  and  _174
REMARK   75  A    between atoms: _177  and  _179
REMARK   76  A    between atoms: _179  and  _180
REMARK   77  A    between atoms: _179  and  _182
REMARK   78  A    between atoms: _182  and  _183
REMARK   79  A    between atoms: _187  and  _188
REMARK   80  A    between atoms: _193  and  _195
REMARK   81  A    between atoms: _195  and  _196
REMARK   82  A    between atoms: _195  and  _198
REMARK   83  A    between atoms: _201  and  _203
REMARK   84  A    between atoms: _203  and  _204
REMARK   85  A    between atoms: _203  and  _206
REMARK   86  A    between atoms: _206  and  _207
REMARK   87  A    between atoms: _212  and  _214
REMARK   88  A    between atoms: _214  and  _215
REMARK   89  A    between atoms: _214  and  _217
REMARK   90  A    between atoms: _217  and  _218
REMARK   91  A    between atoms: _221  and  _223
REMARK   92  A    between atoms: _223  and  _224
REMARK   93  A    between atoms: _226  and  _228
REMARK   94  A    between atoms: _228  and  _229
REMARK   95  A    between atoms: _228  and  _231
REMARK   96  A    between atoms: _231  and  _232
REMARK   97  A    between atoms: _232  and  _233
REMARK   98  A    between atoms: _233  and  _234
REMARK   99  A    between atoms: _243  and  _245
REMARK  100  A    between atoms: _245  and  _246
REMARK  101  A    between atoms: _245  and  _248
REMARK  102  A    between atoms: _248  and  _249
REMARK  103  A    between atoms: _254  and  _256
REMARK  104  A    between atoms: _256  and  _257
REMARK  105  A    between atoms: _256  and  _259
REMARK  106  A    between atoms: _259  and  _260
REMARK  107  A    between atoms: _260  and  _261
REMARK  108  A    between atoms: _261  and  _262
REMARK  109  A    between atoms: _271  and  _273
REMARK  110  A    between atoms: _273  and  _274
REMARK  111  A    between atoms: _273  and  _276
REMARK  112  A    between atoms: _276  and  _277
REMARK  113  A    between atoms: _280  and  _282
REMARK  114  A    between atoms: _282  and  _283
REMARK  115  A    between atoms: _282  and  _285
REMARK  116  A    between atoms: _285  and  _286
REMARK  117  A    between atoms: _289  and  _291
REMARK  118  A    between atoms: _291  and  _292
REMARK  119  A    between atoms: _291  and  _294
REMARK  120  A    between atoms: _294  and  _295
REMARK  121  A    between atoms: _298  and  _300
REMARK  122  A    between atoms: _300  and  _301
REMARK  123  A    between atoms: _300  and  _303
REMARK  124  A    between atoms: _303  and  _304
REMARK  125  A    between atoms: _307  and  _309
REMARK  126  A    between atoms: _309  and  _310
REMARK  127  A    between atoms: _309  and  _312
REMARK  128  A    between atoms: _312  and  _313
REMARK  129  A    between atoms: _316  and  _318
REMARK  130  A    between atoms: _318  and  _319
REMARK  131  A    between atoms: _321  and  _323
REMARK  132  A    between atoms: _323  and  _324
REMARK  133  A    between atoms: _327  and  _329
REMARK  134  A    between atoms: _329  and  _330
REMARK  135  A    between atoms: _329  and  _332
REMARK  136  A    between atoms: _332  and  _333
REMARK  137  A    between atoms: _336  and  _338
REMARK  138  A    between atoms: _338  and  _339
REMARK  139  A    between atoms: _338  and  _341
REMARK  140  A    between atoms: _341  and  _342
REMARK  141  A    between atoms: _345  and  _347
REMARK  142  A    between atoms: _347  and  _348
REMARK  143  A    between atoms: _347  and  _350
REMARK  144  A    between atoms: _350  and  _351
REMARK  145  A    between atoms: _354  and  _356
REMARK  146  A    between atoms: _356  and  _357
REMARK  147  A    between atoms: _356  and  _359
REMARK  148  A    between atoms: _362  and  _364
REMARK  149  A    between atoms: _364  and  _365
REMARK  150  A    between atoms: _364  and  _367
REMARK  151  A    between atoms: _367  and  _368
REMARK  152  A    between atoms: _368  and  _369
REMARK  153  A    between atoms: _369  and  _370
REMARK  154  A    between atoms: _370  and  _371
REMARK  155  A    between atoms: _375  and  _377
REMARK  156  A    between atoms: _377  and  _378
REMARK  157  A    between atoms: _377  and  _380
REMARK  158  A    between atoms: _380  and  _381
REMARK  159  A    between atoms: _381  and  _382
REMARK  160  A    between atoms: _384  and  _386
REMARK  161  A    between atoms: _386  and  _387
REMARK  162  A    between atoms: _386  and  _389
REMARK  163  A    between atoms: _389  and  _390
REMARK  164  A    between atoms: _393  and  _395
REMARK  165  A    between atoms: _395  and  _396
REMARK  166  A    between atoms: _398  and  _400
REMARK  167  A    between atoms: _400  and  _401
REMARK  168  A    between atoms: _403  and  _405
REMARK  169  A    between atoms: _405  and  _406
REMARK  170  A    between atoms: _405  and  _408
REMARK  171  A    between atoms: _408  and  _409
REMARK  172  A    between atoms: _412  and  _414
REMARK  173  A    between atoms: _414  and  _415
REMARK  174  A    between atoms: _417  and  _419
REMARK  175  A    between atoms: _419  and  _420
REMARK  176  A    between atoms: _422  and  _424
REMARK  177  A    between atoms: _424  and  _425
REMARK  178  A    between atoms: _424  and  _427
REMARK  179  A    between atoms: _427  and  _428
REMARK  180  A    between atoms: _431  and  _433
REMARK  181  A    between atoms: _433  and  _434
REMARK  182  A    between atoms: _433  and  _436
REMARK  183  A    between atoms: _439  and  _441
REMARK  184  A    between atoms: _441  and  _442
REMARK  185  A    between atoms: _441  and  _444
REMARK  186  A    between atoms: _444  and  _445
REMARK  187  A    between atoms: _449  and  _450
REMARK  188  A    between atoms: _455  and  _457
REMARK  189  A    between atoms: _457  and  _458
REMARK  190  A    between atoms: _457  and  _460
REMARK  191  A    between atoms: _460  and  _461
REMARK  192  A    between atoms: _465  and  _466
REMARK  193  A    between atoms: _471  and  _473
REMARK  194  A    between atoms: _473  and  _474
REMARK  195  A    between atoms: _473  and  _476
REMARK  196  A    between atoms: _479  and  _481
REMARK  197  A    between atoms: _481  and  _482
REMARK  198  A    between atoms: _481  and  _484
REMARK  199  A    between atoms: _484  and  _485
REMARK  200  A    between atoms: _490  and  _492
REMARK  201  A    between atoms: _492  and  _493
REMARK  202  A    between atoms: _492  and  _495
REMARK  203  A    between atoms: _495  and  _496
REMARK  204  A    between atoms: _499  and  _501
REMARK  205  A    between atoms: _501  and  _502
REMARK  206  A    between atoms: _501  and  _504
REMARK  207  A    between atoms: _504  and  _505
REMARK  208  A    between atoms: _508  and  _510
REMARK  209  A    between atoms: _510  and  _511
REMARK  210  A    between atoms: _513  and  _515
REMARK  211  A    between atoms: _515  and  _516
REMARK  212  A    between atoms: _515  and  _518
REMARK  213  A    between atoms: _518  and  _519
REMARK  214  A    between atoms: _519  and  _520
REMARK  215  A    between atoms: _520  and  _521
REMARK  216  A    between atoms: _530  and  _532
REMARK  217  A    between atoms: _532  and  _533
REMARK  218  A    between atoms: _532  and  _535
REMARK  219  A    between atoms: _535  and  _536
REMARK                            x       y       z     vdW  Elec       q    Type
REMARK                         _______ _______ _______ _____ _____    ______ ____
ROOT
ATOM      1  CA  LEU A   1      -4.028  17.492  40.287  0.00  0.00    +0.133 C 
ENDROOT
BRANCH   1   2
ATOM      2  N   LEU A   1      -4.645  18.805  40.448  0.00  0.00    -0.239 NA
ATOM      3  H   LEU A   1      -5.216  19.196  39.672  0.00  0.00    +0.142 HD
ENDBRANCH   1   2
BRANCH   1   4
ATOM      4  C   LEU A   1      -2.729  17.627  39.509  0.00  0.00    +0.224 C 
ATOM      5  O   LEU A   1      -2.628  18.328  38.493  0.00  0.00    -0.287 OA
ENDBRANCH   1   4
BRANCH   1   6
ATOM      6  CB  LEU A   1      -4.998  16.510  39.609  0.00  0.00    +0.025 C 
BRANCH   6   7
ATOM      7  CG  LEU A   1      -6.452  16.582  40.090  0.00  0.00    +0.002 C 
ATOM      8  CD2 LEU A   1      -6.629  15.989  41.482  0.00  0.00    +0.000 C 
ATOM      9  CD1 LEU A   1      -7.387  15.881  39.117  0.00  0.00    +0.000 C 
ENDBRANCH   6   7
ENDBRANCH   1   6
TORSDOF 4
REMARK  Name = ../refined-set-2016/1zpa/1zpa_pocket.pdb
REMARK  219 active torsions:
REMARK  status: ('A' for Active; 'I' for Inactive)
REMARK    1  A    between atoms: _1  and  _3
REMARK    2  A    between atoms: _3  and  _4
REMARK    3  A    between atoms: _3  and  _6
REMARK    4  A    between atoms: _6  and  _7
REMARK    5  A    between atoms: _7  and  _8
REMARK    6  A    between atoms: _8  and  _9
REMARK    7  A    between atoms: _18  and  _20
REMARK    8  A    between atoms: _20  and  _21
REMARK    9  A    between atoms: _20  and  _23
REMARK   10  A    between atoms: _23  and  _24
REMARK   11  A    between atoms: _27  and  _29
REMARK   12  A    between atoms: _29  and  _30
REMARK   13  A    between atoms: _29  and  _32
REMARK   14  A    between atoms: _32  and  _33
REMARK   15  A    between atoms: _36  and  _38
REMARK   16  A    between atoms: _38  and  _39
REMARK   17  A    between atoms: _38  and  _41
REMARK   18  A    between atoms: _41  and  _42
REMARK   19  A    between atoms: _45  and  _47
REMARK   20  A    between atoms: _47  and  _48
REMARK   21  A    between atoms: _47  and  _50
REMARK   22  A    between atoms: _50  and  _51
REMARK   23  A    between atoms: _54  and  _56
REMARK   24  A    between atoms: _56  and  _57
REMARK   25  A    between atoms: _59  and  _61
REMARK   26  A    between atoms: _61  and  _62
REMARK   27  A    between atoms: _65  and  _67
REMARK   28  A    between atoms: _67  and  _68
REMARK   29  A    between atoms: _67  and  _70
REMARK   30  A    between atoms: _70  and  _71
REMARK   31  A    between atoms: _74  and  _76
REMARK   32  A    between atoms: _76  and  _77
REMARK   33  A    between atoms: _76  and  _79
REMARK   34  A    between atoms: _79  and  _80
REMARK   35  A    between atoms: _83  and  _85
REMARK   36  A    between atoms: _85  and  _86
REMARK   37  A    between atoms: _85  and  _88
REMARK   38  A    between atoms: _88  and  _89
REMARK   39  A    between atoms: _92  and  _94
REMARK   40  A    between atoms: _94  and  _95
REMARK   41  A    between atoms: _94  and  _97
REMARK   42  A    between atoms: _100  and  _102
REMARK   43  A    between atoms: _102  and  _103
REMARK   44  A    between atoms: _102  and  _105
REMARK   45  A    between atoms: _105  and  _106
REMARK   46  A    between atoms: _106  and  _107
REMARK   47  A    between atoms: _109  and  _111
REMARK   48  A    between atoms: _111  and  _112
REMARK   49  A    between atoms: _111  and  _114
REMARK   50  A    between atoms: _114  and  _115
REMARK   51  A    between atoms: _118  and  _120
REMARK   52  A    between atoms: _120  and  _121
REMARK   53  A    between atoms: _123  and  _125
REMARK   54  A    between atoms: _125  and  _126
REMARK   55  A    between atoms: _128  and  _130
REMARK   56  A    between atoms: _130  and  _131
REMARK   57  A    between atoms: _130  and  _133
REMARK   58  A    between atoms: _133  and  _134
REMARK   59  A    between atoms: _137  and  _139
REMARK   60  A    between atoms: _139  and  _140
REMARK   61  A    between atoms: _142  and  _144
REMARK   62  A    between atoms: _144  and  _145
REMARK   63  A    between atoms: _147  and  _149
REMARK   64  A    between atoms: _149  and  _150
REMARK   65  A    between atoms: _149  and  _152
REMARK   66  A    between atoms: _152  and  _153
REMARK   67  A    between atoms: _159  and  _161
REMARK   68  A    between atoms: _161  and  _162
REMARK   69  A    between atoms: _161  and  _164
REMARK   70  A    between atoms: _164  and  _165
REMARK   71  A    between atoms: _168  and  _170
REMARK   72  A    between atoms: _170  and  _171
REMARK   73  A    between atoms: _170  and  _173
REMARK   74  A    between atoms: _173  and  _174
REMARK   75  A    between atoms: _177  and  _179
REMARK   76  A    between atoms: _179  and  _180
REMARK   77  A    between atoms: _179  and  _182
REMARK   78  A    between atoms: _182  and  _183
REMARK   79  A    between atoms: _187  and  _188
REMARK   80  A    between atoms: _193  and  _195
REMARK   81  A    between atoms: _195  and  _196
REMARK   82  A    between atoms: _195  and  _198
REMARK   83  A    between atoms: _201  and  _203
REMARK   84  A    between atoms: _203  and  _204
REMARK   85  A    between atoms: _203  and  _206
REMARK   86  A    between atoms: _206  and  _207
REMARK   87  A    between atoms: _212  and  _214
REMARK   88  A    between atoms: _214  and  _215
REMARK   89  A    between atoms: _214  and  _217
REMARK   90  A    between atoms: _217  and  _218
REMARK   91  A    between atoms: _221  and  _223
REMARK   92  A    between atoms: _223  and  _224
REMARK   93  A    between atoms: _226  and  _228
REMARK   94  A    between atoms: _228  and  _229
REMARK   95  A    between atoms: _228  and  _231
REMARK   96  A    between atoms: _231  and  _232
REMARK   97  A    between atoms: _232  and  _233
REMARK   98  A    between atoms: _233  and  _234
REMARK   99  A    between atoms: _243  and  _245
REMARK  100  A    between atoms: _245  and  _246
REMARK  101  A    between atoms: _245  and  _248
REMARK  102  A    between atoms: _248  and  _249
REMARK  103  A    between atoms: _254  and  _256
REMARK  104  A    between atoms: _256  and  _257
REMARK  105  A    between atoms: _256  and  _259
REMARK  106  A    between atoms: _259  and  _260
REMARK  107  A    between atoms: _260  and  _261
REMARK  108  A    between atoms: _261  and  _262
REMARK  109  A    between atoms: _271  and  _273
REMARK  110  A    between atoms: _273  and  _274
REMARK  111  A    between atoms: _273  and  _276
REMARK  112  A    between atoms: _276  and  _277
REMARK  113  A    between atoms: _280  and  _282
REMARK  114  A    between atoms: _282  and  _283
REMARK  115  A    between atoms: _282  and  _285
REMARK  116  A    between atoms: _285  and  _286
REMARK  117  A    between atoms: _289  and  _291
REMARK  118  A    between atoms: _291  and  _292
REMARK  119  A    between atoms: _291  and  _294
REMARK  120  A    between atoms: _294  and  _295
REMARK  121  A    between atoms: _298  and  _300
REMARK  122  A    between atoms: _300  and  _301
REMARK  123  A    between atoms: _300  and  _303
REMARK  124  A    between atoms: _303  and  _304
REMARK  125  A    between atoms: _307  and  _309
REMARK  126  A    between atoms: _309  and  _310
REMARK  127  A    between atoms: _309  and  _312
REMARK  128  A    between atoms: _312  and  _313
REMARK  129  A    between atoms: _316  and  _318
REMARK  130  A    between atoms: _318  and  _319
REMARK  131  A    between atoms: _321  and  _323
REMARK  132  A    between atoms: _323  and  _324
REMARK  133  A    between atoms: _327  and  _329
REMARK  134  A    between atoms: _329  and  _330
REMARK  135  A    between atoms: _329  and  _332
REMARK  136  A    between atoms: _332  and  _333
REMARK  137  A    between atoms: _336  and  _338
REMARK  138  A    between atoms: _338  and  _339
REMARK  139  A    between atoms: _338  and  _341
REMARK  140  A    between atoms: _341  and  _342
REMARK  141  A    between atoms: _345  and  _347
REMARK  142  A    between atoms: _347  and  _348
REMARK  143  A    between atoms: _347  and  _350
REMARK  144  A    between atoms: _350  and  _351
REMARK  145  A    between atoms: _354  and  _356
REMARK  146  A    between atoms: _356  and  _357
REMARK  147  A    between atoms: _356  and  _359
REMARK  148  A    between atoms: _362  and  _364
REMARK  149  A    between atoms: _364  and  _365
REMARK  150  A    between atoms: _364  and  _367
REMARK  151  A    between atoms: _367  and  _368
REMARK  152  A    between atoms: _368  and  _369
REMARK  153  A    between atoms: _369  and  _370
REMARK  154  A    between atoms: _370  and  _371
REMARK  155  A    between atoms: _375  and  _377
REMARK  156  A    between atoms: _377  and  _378
REMARK  157  A    between atoms: _377  and  _380
REMARK  158  A    between atoms: _380  and  _381
REMARK  159  A    between atoms: _381  and  _382
REMARK  160  A    between atoms: _384  and  _386
REMARK  161  A    between atoms: _386  and  _387
REMARK  162  A    between atoms: _386  and  _389
REMARK  163  A    between atoms: _389  and  _390
REMARK  164  A    between atoms: _393  and  _395
REMARK  165  A    between atoms: _395  and  _396
REMARK  166  A    between atoms: _398  and  _400
REMARK  167  A    between atoms: _400  and  _401
REMARK  168  A    between atoms: _403  and  _405
REMARK  169  A    between atoms: _405  and  _406
REMARK  170  A    between atoms: _405  and  _408
REMARK  171  A    between atoms: _408  and  _409
REMARK  172  A    between atoms: _412  and  _414
REMARK  173  A    between atoms: _414  and  _415
REMARK  174  A    between atoms: _417  and  _419
REMARK  175  A    between atoms: _419  and  _420
REMARK  176  A    between atoms: _422  and  _424
REMARK  177  A    between atoms: _424  and  _425
REMARK  178  A    between atoms: _424  and  _427
REMARK  179  A    between atoms: _427  and  _428
REMARK  180  A    between atoms: _431  and  _433
REMARK  181  A    between atoms: _433  and  _434
REMARK  182  A    between atoms: _433  and  _436
REMARK  183  A    between atoms: _439  and  _441
REMARK  184  A    between atoms: _441  and  _442
REMARK  185  A    between atoms: _441  and  _444
REMARK  186  A    between atoms: _444  and  _445
REMARK  187  A    between atoms: _449  and  _450
REMARK  188  A    between atoms: _455  and  _457
REMARK  189  A    between atoms: _457  and  _458
REMARK  190  A    between atoms: _457  and  _460
REMARK  191  A    between atoms: _460  and  _461
REMARK  192  A    between atoms: _465  and  _466
REMARK  193  A    between atoms: _471  and  _473
REMARK  194  A    between atoms: _473  and  _474
REMARK  195  A    between atoms: _473  and  _476
REMARK  196  A    between atoms: _479  and  _481
REMARK  197  A    between atoms: _481  and  _482
REMARK  198  A    between atoms: _481  and  _484
REMARK  199  A    between atoms: _484  and  _485
REMARK  200  A    between atoms: _490  and  _492
REMARK  201  A    between atoms: _492  and  _493
REMARK  202  A    between atoms: _492  and  _495
REMARK  203  A    between atoms: _495  and  _496
REMARK  204  A    between atoms: _499  and  _501
REMARK  205  A    between atoms: _501  and  _502
REMARK  206  A    between atoms: _501  and  _504
REMARK  207  A    between atoms: _504  and  _505
REMARK  208  A    between atoms: _508  and  _510
REMARK  209  A    between atoms: _510  and  _511
REMARK  210  A    between atoms: _513  and  _515
REMARK  211  A    between atoms: _515  and  _516
REMARK  212  A    between atoms: _515  and  _518
REMARK  213  A    between atoms: _518  and  _519
REMARK  214  A    between atoms: _519  and  _520
REMARK  215  A    between atoms: _520  and  _521
REMARK  216  A    between atoms: _530  and  _532
REMARK  217  A    between atoms: _532  and  _533
REMARK  218  A    between atoms: _532  and  _535
REMARK  219  A    between atoms: _535  and  _536
REMARK                            x       y       z     vdW  Elec       q    Type
REMARK                         _______ _______ _______ _____ _____    ______ ____
ROOT
ATOM      1  CA  VAL A   3      -0.861  20.051  28.695  0.00  0.00    +0.149 C 
ENDROOT
BRANCH   1   3
ATOM      2  C   PRO A   2       0.580  18.221  28.119  0.00  0.00    +0.241 C 
ATOM      3  N   VAL A   3      -0.430  18.667  28.860  0.00  0.00    -0.297 N 
ATOM      4  H   VAL A   3      -0.903  18.042  29.543  0.00  0.00    +0.150 HD
ATOM      5  O   PRO A   2       1.185  18.949  27.327  0.00  0.00    -0.273 OA
BRANCH   2  12
ATOM      6  C   THR A   1       0.416  16.296  30.607  0.00  0.00    +0.244 C 
ATOM      7  O   THR A   1       1.325  17.006  31.031  0.00  0.00    -0.273 OA
ATOM      8  N   PRO A   2       0.145  16.112  29.328  0.00  0.00    -0.272 N 
ATOM      9  CD  PRO A   2      -0.929  15.266  28.788  0.00  0.00    +0.094 C 
ATOM     10  CG  PRO A   2      -0.892  15.584  27.316  0.00  0.00    +0.024 C 
ATOM     11  CB  PRO A   2       0.513  15.991  27.020  0.00  0.00    +0.031 C 
ATOM     12  CA  PRO A   2       0.939  16.755  28.282  0.00  0.00    +0.152 C 
BRANCH   6  13
ATOM     13  CA  THR A   1      -0.483  15.540  31.584  0.00  0.00    +0.172 C 
BRANCH  13  14
ATOM     14  CB  THR A   1      -1.601  16.474  32.071  0.00  0.00    +0.135 C 
ATOM     15  CG2 THR A   1      -0.977  17.625  32.844  0.00  0.00    +0.034 C 
BRANCH  14  16
ATOM     16  OG1 THR A   1      -2.288  17.039  30.944  0.00  0.00    -0.383 OA
ATOM     17  HG1 THR A   1      -1.647  17.554  30.393  0.00  0.00    +0.210 HD
ENDBRANCH  14  16
ENDBRANCH  13  14
BRANCH  13  18
ATOM     18  N   THR A   1       0.369  15.034  32.652  0.00  0.00    -0.236 NA
ATOM     19  H   THR A   1       0.477  15.557  33.545  0.00  0.00    +0.142 HD
ENDBRANCH  13  18
ENDBRANCH   6  13
ENDBRANCH   2  12
ENDBRANCH   1   3
BRANCH   1  20
ATOM     20  C   VAL A   3      -1.416  20.567  30.011  0.00  0.00    +0.241 C 
ATOM     21  O   VAL A   3      -2.132  19.788  30.651  0.00  0.00    -0.273 OA
ATOM     22  N   ASN A   4      -1.093  21.803  30.363  0.00  0.00    -0.297 N 
ATOM     23  H   ASN A   4      -0.464  22.380  29.769  0.00  0.00    +0.150 HD
BRANCH  22  24
ATOM     24  CA  ASN A   4      -1.647  22.335  31.614  0.00  0.00    +0.158 C 
BRANCH  24  25
ATOM     25  C   ASN A   4      -3.142  22.586  31.406  0.00  0.00    +0.241 C 
ATOM     26  N   ILE A   5      -4.000  22.110  32.287  0.00  0.00    -0.298 N 
ATOM     27  H   ILE A   5      -3.639  21.676  33.161  0.00  0.00    +0.150 HD
ATOM     28  O   ASN A   4      -3.490  23.231  30.419  0.00  0.00    -0.273 OA
BRANCH  26  29
ATOM     29  CA  ILE A   5      -5.439  22.175  32.071  0.00  0.00    +0.137 C 
BRANCH  29  30
ATOM     30  CB  ILE A   5      -6.009  20.763  31.827  0.00  0.00    +0.026 C 
ATOM     31  CG2 ILE A   5      -7.532  20.801  31.789  0.00  0.00    +0.002 C 
BRANCH  30  32
ATOM     32  CG1 ILE A   5      -5.488  20.037  30.585  0.00  0.00    +0.002 C 
ATOM     33  CD1 ILE A   5      -5.679  18.529  30.735  0.00  0.00    +0.000 C 
ENDBRANCH  30  32
ENDBRANCH  29  30
BRANCH  29  34
ATOM     34  C   ILE A   5      -6.199  22.793  33.247  0.00  0.00    +0.227 C 
ATOM     35  O   ILE A   5      -6.112  22.292  34.361  0.00  0.00    -0.286 OA
ENDBRANCH  29  34
ENDBRANCH  26  29
ENDBRANCH  24  25
BRANCH  24  36
ATOM     36  CB  ASN A   4      -0.961  23.627  32.038  0.00  0.00    +0.114 C 
BRANCH  36  37
ATOM     37  CG  ASN A   4       0.375  23.412  32.723  0.00  0.00    +0.222 C 
ATOM     38  OD1 ASN A   4       0.581  22.383  33.369  0.00  0.00    -0.275 OA
ATOM     39  ND2 ASN A   4       1.270  24.384  32.587  0.00  0.00    -0.329 N 
ATOM     40 HD21 ASN A   4       2.203  24.299  33.039  0.00  0.00    +0.145 HD
ATOM     41 HD22 ASN A   4       1.038  25.230  32.029  0.00  0.00    +0.145 HD
ENDBRANCH  36  37
ENDBRANCH  24  36
ENDBRANCH  22  24
ENDBRANCH   1  20
BRANCH   1  42
ATOM     42  CB  VAL A   3      -1.983  20.203  27.654  0.00  0.00    +0.027 C 
ATOM     43  CG2 VAL A   3      -3.179  19.352  28.057  0.00  0.00    +0.002 C 
ATOM     44  CG1 VAL A   3      -2.373  21.669  27.537  0.00  0.00    +0.002 C 
ENDBRANCH   1  42
TORSDOF 16
REMARK  Name = ../refined-set-2016/1zpa/1zpa_pocket.pdb
REMARK  219 active torsions:
REMARK  status: ('A' for Active; 'I' for Inactive)
REMARK    1  A    between atoms: _1  and  _3
REMARK    2  A    between atoms: _3  and  _4
REMARK    3  A    between atoms: _3  and  _6
REMARK    4  A    between atoms: _6  and  _7
REMARK    5  A    between atoms: _7  and  _8
REMARK    6  A    between atoms: _8  and  _9
REMARK    7  A    between atoms: _18  and  _20
REMARK    8  A    between atoms: _20  and  _21
REMARK    9  A    between atoms: _20  and  _23
REMARK   10  A    between atoms: _23  and  _24
REMARK   11  A    between atoms: _27  and  _29
REMARK   12  A    between atoms: _29  and  _30
REMARK   13  A    between atoms: _29  and  _32
REMARK   14  A    between atoms: _32  and  _33
REMARK   15  A    between atoms: _36  and  _38
REMARK   16  A    between atoms: _38  and  _39
REMARK   17  A    between atoms: _38  and  _41
REMARK   18  A    between atoms: _41  and  _42
REMARK   19  A    between atoms: _45  and  _47
REMARK   20  A    between atoms: _47  and  _48
REMARK   21  A    between atoms: _47  and  _50
REMARK   22  A    between atoms: _50  and  _51
REMARK   23  A    between atoms: _54  and  _56
REMARK   24  A    between atoms: _56  and  _57
REMARK   25  A    between atoms: _59  and  _61
REMARK   26  A    between atoms: _61  and  _62
REMARK   27  A    between atoms: _65  and  _67
REMARK   28  A    between atoms: _67  and  _68
REMARK   29  A    between atoms: _67  and  _70
REMARK   30  A    between atoms: _70  and  _71
REMARK   31  A    between atoms: _74  and  _76
REMARK   32  A    between atoms: _76  and  _77
REMARK   33  A    between atoms: _76  and  _79
REMARK   34  A    between atoms: _79  and  _80
REMARK   35  A    between atoms: _83  and  _85
REMARK   36  A    between atoms: _85  and  _86
REMARK   37  A    between atoms: _85  and  _88
REMARK   38  A    between atoms: _88  and  _89
REMARK   39  A    between atoms: _92  and  _94
REMARK   40  A    between atoms: _94  and  _95
REMARK   41  A    between atoms: _94  and  _97
REMARK   42  A    between atoms: _100  and  _102
REMARK   43  A    between atoms: _102  and  _103
REMARK   44  A    between atoms: _102  and  _105
REMARK   45  A    between atoms: _105  and  _106
REMARK   46  A    between atoms: _106  and  _107
REMARK   47  A    between atoms: _109  and  _111
REMARK   48  A    between atoms: _111  and  _112
REMARK   49  A    between atoms: _111  and  _114
REMARK   50  A    between atoms: _114  and  _115
REMARK   51  A    between atoms: _118  and  _120
REMARK   52  A    between atoms: _120  and  _121
REMARK   53  A    between atoms: _123  and  _125
REMARK   54  A    between atoms: _125  and  _126
REMARK   55  A    between atoms: _128  and  _130
REMARK   56  A    between atoms: _130  and  _131
REMARK   57  A    between atoms: _130  and  _133
REMARK   58  A    between atoms: _133  and  _134
REMARK   59  A    between atoms: _137  and  _139
REMARK   60  A    between atoms: _139  and  _140
REMARK   61  A    between atoms: _142  and  _144
REMARK   62  A    between atoms: _144  and  _145
REMARK   63  A    between atoms: _147  and  _149
REMARK   64  A    between atoms: _149  and  _150
REMARK   65  A    between atoms: _149  and  _152
REMARK   66  A    between atoms: _152  and  _153
REMARK   67  A    between atoms: _159  and  _161
REMARK   68  A    between atoms: _161  and  _162
REMARK   69  A    between atoms: _161  and  _164
REMARK   70  A    between atoms: _164  and  _165
REMARK   71  A    between atoms: _168  and  _170
REMARK   72  A    between atoms: _170  and  _171
REMARK   73  A    between atoms: _170  and  _173
REMARK   74  A    between atoms: _173  and  _174
REMARK   75  A    between atoms: _177  and  _179
REMARK   76  A    between atoms: _179  and  _180
REMARK   77  A    between atoms: _179  and  _182
REMARK   78  A    between atoms: _182  and  _183
REMARK   79  A    between atoms: _187  and  _188
REMARK   80  A    between atoms: _193  and  _195
REMARK   81  A    between atoms: _195  and  _196
REMARK   82  A    between atoms: _195  and  _198
REMARK   83  A    between atoms: _201  and  _203
REMARK   84  A    between atoms: _203  and  _204
REMARK   85  A    between atoms: _203  and  _206
REMARK   86  A    between atoms: _206  and  _207
REMARK   87  A    between atoms: _212  and  _214
REMARK   88  A    between atoms: _214  and  _215
REMARK   89  A    between atoms: _214  and  _217
REMARK   90  A    between atoms: _217  and  _218
REMARK   91  A    between atoms: _221  and  _223
REMARK   92  A    between atoms: _223  and  _224
REMARK   93  A    between atoms: _226  and  _228
REMARK   94  A    between atoms: _228  and  _229
REMARK   95  A    between atoms: _228  and  _231
REMARK   96  A    between atoms: _231  and  _232
REMARK   97  A    between atoms: _232  and  _233
REMARK   98  A    between atoms: _233  and  _234
REMARK   99  A    between atoms: _243  and  _245
REMARK  100  A    between atoms: _245  and  _246
REMARK  101  A    between atoms: _245  and  _248
REMARK  102  A    between atoms: _248  and  _249
REMARK  103  A    between atoms: _254  and  _256
REMARK  104  A    between atoms: _256  and  _257
REMARK  105  A    between atoms: _256  and  _259
REMARK  106  A    between atoms: _259  and  _260
REMARK  107  A    between atoms: _260  and  _261
REMARK  108  A    between atoms: _261  and  _262
REMARK  109  A    between atoms: _271  and  _273
REMARK  110  A    between atoms: _273  and  _274
REMARK  111  A    between atoms: _273  and  _276
REMARK  112  A    between atoms: _276  and  _277
REMARK  113  A    between atoms: _280  and  _282
REMARK  114  A    between atoms: _282  and  _283
REMARK  115  A    between atoms: _282  and  _285
REMARK  116  A    between atoms: _285  and  _286
REMARK  117  A    between atoms: _289  and  _291
REMARK  118  A    between atoms: _291  and  _292
REMARK  119  A    between atoms: _291  and  _294
REMARK  120  A    between atoms: _294  and  _295
REMARK  121  A    between atoms: _298  and  _300
REMARK  122  A    between atoms: _300  and  _301
REMARK  123  A    between atoms: _300  and  _303
REMARK  124  A    between atoms: _303  and  _304
REMARK  125  A    between atoms: _307  and  _309
REMARK  126  A    between atoms: _309  and  _310
REMARK  127  A    between atoms: _309  and  _312
REMARK  128  A    between atoms: _312  and  _313
REMARK  129  A    between atoms: _316  and  _318
REMARK  130  A    between atoms: _318  and  _319
REMARK  131  A    between atoms: _321  and  _323
REMARK  132  A    between atoms: _323  and  _324
REMARK  133  A    between atoms: _327  and  _329
REMARK  134  A    between atoms: _329  and  _330
REMARK  135  A    between atoms: _329  and  _332
REMARK  136  A    between atoms: _332  and  _333
REMARK  137  A    between atoms: _336  and  _338
REMARK  138  A    between atoms: _338  and  _339
REMARK  139  A    between atoms: _338  and  _341
REMARK  140  A    between atoms: _341  and  _342
REMARK  141  A    between atoms: _345  and  _347
REMARK  142  A    between atoms: _347  and  _348
REMARK  143  A    between atoms: _347  and  _350
REMARK  144  A    between atoms: _350  and  _351
REMARK  145  A    between atoms: _354  and  _356
REMARK  146  A    between atoms: _356  and  _357
REMARK  147  A    between atoms: _356  and  _359
REMARK  148  A    between atoms: _362  and  _364
REMARK  149  A    between atoms: _364  and  _365
REMARK  150  A    between atoms: _364  and  _367
REMARK  151  A    between atoms: _367  and  _368
REMARK  152  A    between atoms: _368  and  _369
REMARK  153  A    between atoms: _369  and  _370
REMARK  154  A    between atoms: _370  and  _371
REMARK  155  A    between atoms: _375  and  _377
REMARK  156  A    between atoms: _377  and  _378
REMARK  157  A    between atoms: _377  and  _380
REMARK  158  A    between atoms: _380  and  _381
REMARK  159  A    between atoms: _381  and  _382
REMARK  160  A    between atoms: _384  and  _386
REMARK  161  A    between atoms: _386  and  _387
REMARK  162  A    between atoms: _386  and  _389
REMARK  163  A    between atoms: _389  and  _390
REMARK  164  A    between atoms: _393  and  _395
REMARK  165  A    between atoms: _395  and  _396
REMARK  166  A    between atoms: _398  and  _400
REMARK  167  A    between atoms: _400  and  _401
REMARK  168  A    between atoms: _403  and  _405
REMARK  169  A    between atoms: _405  and  _406
REMARK  170  A    between atoms: _405  and  _408
REMARK  171  A    between atoms: _408  and  _409
REMARK  172  A    between atoms: _412  and  _414
REMARK  173  A    between atoms: _414  and  _415
REMARK  174  A    between atoms: _417  and  _419
REMARK  175  A    between atoms: _419  and  _420
REMARK  176  A    between atoms: _422  and  _424
REMARK  177  A    between atoms: _424  and  _425
REMARK  178  A    between atoms: _424  and  _427
REMARK  179  A    between atoms: _427  and  _428
REMARK  180  A    between atoms: _431  and  _433
REMARK  181  A    between atoms: _433  and  _434
REMARK  182  A    between atoms: _433  and  _436
REMARK  183  A    between atoms: _439  and  _441
REMARK  184  A    between atoms: _441  and  _442
REMARK  185  A    between atoms: _441  and  _444
REMARK  186  A    between atoms: _444  and  _445
REMARK  187  A    between atoms: _449  and  _450
REMARK  188  A    between atoms: _455  and  _457
REMARK  189  A    between atoms: _457  and  _458
REMARK  190  A    between atoms: _457  and  _460
REMARK  191  A    between atoms: _460  and  _461
REMARK  192  A    between atoms: _465  and  _466
REMARK  193  A    between atoms: _471  and  _473
REMARK  194  A    between atoms: _473  and  _474
REMARK  195  A    between atoms: _473  and  _476
REMARK  196  A    between atoms: _479  and  _481
REMARK  197  A    between atoms: _481  and  _482
REMARK  198  A    between atoms: _481  and  _484
REMARK  199  A    between atoms: _484  and  _485
REMARK  200  A    between atoms: _490  and  _492
REMARK  201  A    between atoms: _492  and  _493
REMARK  202  A    between atoms: _492  and  _495
REMARK  203  A    between atoms: _495  and  _496
REMARK  204  A    between atoms: _499  and  _501
REMARK  205  A    between atoms: _501  and  _502
REMARK  206  A    between atoms: _501  and  _504
REMARK  207  A    between atoms: _504  and  _505
REMARK  208  A    between atoms: _508  and  _510
REMARK  209  A    between atoms: _510  and  _511
REMARK  210  A    between atoms: _513  and  _515
REMARK  211  A    between atoms: _515  and  _516
REMARK  212  A    between atoms: _515  and  _518
REMARK  213  A    between atoms: _518  and  _519
REMARK  214  A    between atoms: _519  and  _520
REMARK  215  A    between atoms: _520  and  _521
REMARK  216  A    between atoms: _530  and  _532
REMARK  217  A    between atoms: _532  and  _533
REMARK  218  A    between atoms: _532  and  _535
REMARK  219  A    between atoms: _535  and  _536
REMARK                            x       y       z     vdW  Elec       q    Type
REMARK                         _______ _______ _______ _____ _____    ______ ____
ROOT
ATOM      1  CA  ARG A   2     -14.575  23.357  35.682  0.00  0.00    +0.149 C 
ENDROOT
BRANCH   1   4
ATOM      2  C   GLY A   1     -12.142  23.222  35.304  0.00  0.00    +0.240 C 
ATOM      3  O   GLY A   1     -11.922  24.239  35.945  0.00  0.00    -0.274 OA
ATOM      4  N   ARG A   2     -13.368  22.728  35.185  0.00  0.00    -0.297 N 
ATOM      5  H   ARG A   2     -13.471  21.816  34.696  0.00  0.00    +0.150 HD
BRANCH   2   6
ATOM      6  CA  GLY A   1     -11.004  22.491  34.619  0.00  0.00    +0.169 C 
BRANCH   6   7
ATOM      7  N   GLY A   1      -9.738  23.199  34.768  0.00  0.00    -0.236 NA
ATOM      8  H   GLY A   1      -9.222  23.121  35.668  0.00  0.00    +0.142 HD
ENDBRANCH   6   7
ENDBRANCH   2   6
ENDBRANCH   1   4
BRANCH   1   9
ATOM      9  C   ARG A   2     -14.529  23.696  37.177  0.00  0.00    +0.241 C 
ATOM     10  N   ASN A   3     -13.926  22.853  38.003  0.00  0.00    -0.298 N 
ATOM     11  H   ASN A   3     -13.564  21.949  37.639  0.00  0.00    +0.150 HD
ATOM     12  O   ARG A   2     -15.049  24.752  37.564  0.00  0.00    -0.273 OA
BRANCH  10  13
ATOM     13  CA  ASN A   3     -13.762  23.180  39.428  0.00  0.00    +0.146 C 
BRANCH  13  14
ATOM     14  C   ASN A   3     -13.171  24.571  39.616  0.00  0.00    +0.227 C 
ATOM     15  O   ASN A   3     -13.547  25.281  40.548  0.00  0.00    -0.286 OA
ENDBRANCH  13  14
BRANCH  13  16
ATOM     16  CB  ASN A   3     -12.892  22.155  40.130  0.00  0.00    +0.112 C 
BRANCH  16  17
ATOM     17  CG  ASN A   3     -11.426  22.181  39.760  0.00  0.00    +0.222 C 
ATOM     18  ND2 ASN A   3     -10.551  22.156  40.756  0.00  0.00    -0.329 N 
ATOM     19 HD21 ASN A   3     -10.885  22.138  41.741  0.00  0.00    +0.145 HD
ATOM     20 HD22 ASN A   3      -9.531  22.154  40.552  0.00  0.00    +0.145 HD
ATOM     21  OD1 ASN A   3     -11.050  22.202  38.594  0.00  0.00    -0.275 OA
ENDBRANCH  16  17
ENDBRANCH  13  16
ENDBRANCH  10  13
ENDBRANCH   1   9
BRANCH   1  22
ATOM     22  CB  ARG A   2     -15.778  22.429  35.393  0.00  0.00    +0.033 C 
BRANCH  22  23
ATOM     23  CG  ARG A   2     -16.063  22.329  33.888  0.00  0.00    +0.045 C 
BRANCH  23  24
ATOM     24  CD  ARG A   2     -17.406  21.635  33.621  0.00  0.00    +0.174 C 
BRANCH  24  25
ATOM     25  NE  ARG A   2     -17.422  20.299  34.203  0.00  0.00    -0.265 N 
ATOM     26  CZ  ARG A   2     -18.026  19.981  35.348  0.00  0.00    +0.342 C 
ATOM     27  NH2 ARG A   2     -18.691  20.883  36.055  0.00  0.00    -0.292 N 
ATOM     28 HH21 ARG A   2     -19.153  20.608  36.945  0.00  0.00    +0.255 HD
ATOM     29 HH22 ARG A   2     -18.751  21.866  35.720  0.00  0.00    +0.255 HD
ATOM     30  NH1 ARG A   2     -17.962  18.730  35.778  0.00  0.00    -0.292 N 
ATOM     31 HH11 ARG A   2     -18.427  18.462  36.669  0.00  0.00    +0.255 HD
ATOM     32 HH12 ARG A   2     -17.447  18.016  35.225  0.00  0.00    +0.255 HD
ATOM     33  HE  ARG A   2     -16.928  19.541  33.690  0.00  0.00    +0.259 HD
ENDBRANCH  24  25
ENDBRANCH  23  24
ENDBRANCH  22  23
ENDBRANCH   1  22
TORSDOF 12
REMARK  Name = ../refined-set-2016/1zpa/1zpa_pocket.pdb
REMARK  219 active torsions:
REMARK  status: ('A' for Active; 'I' for Inactive)
REMARK    1  A    between atoms: _1  and  _3
REMARK    2  A    between atoms: _3  and  _4
REMARK    3  A    between atoms: _3  and  _6
REMARK    4  A    between atoms: _6  and  _7
REMARK    5  A    between atoms: _7  and  _8
REMARK    6  A    between atoms: _8  and  _9
REMARK    7  A    between atoms: _18  and  _20
REMARK    8  A    between atoms: _20  and  _21
REMARK    9  A    between atoms: _20  and  _23
REMARK   10  A    between atoms: _23  and  _24
REMARK   11  A    between atoms: _27  and  _29
REMARK   12  A    between atoms: _29  and  _30
REMARK   13  A    between atoms: _29  and  _32
REMARK   14  A    between atoms: _32  and  _33
REMARK   15  A    between atoms: _36  and  _38
REMARK   16  A    between atoms: _38  and  _39
REMARK   17  A    between atoms: _38  and  _41
REMARK   18  A    between atoms: _41  and  _42
REMARK   19  A    between atoms: _45  and  _47
REMARK   20  A    between atoms: _47  and  _48
REMARK   21  A    between atoms: _47  and  _50
REMARK   22  A    between atoms: _50  and  _51
REMARK   23  A    between atoms: _54  and  _56
REMARK   24  A    between atoms: _56  and  _57
REMARK   25  A    between atoms: _59  and  _61
REMARK   26  A    between atoms: _61  and  _62
REMARK   27  A    between atoms: _65  and  _67
REMARK   28  A    between atoms: _67  and  _68
REMARK   29  A    between atoms: _67  and  _70
REMARK   30  A    between atoms: _70  and  _71
REMARK   31  A    between atoms: _74  and  _76
REMARK   32  A    between atoms: _76  and  _77
REMARK   33  A    between atoms: _76  and  _79
REMARK   34  A    between atoms: _79  and  _80
REMARK   35  A    between atoms: _83  and  _85
REMARK   36  A    between atoms: _85  and  _86
REMARK   37  A    between atoms: _85  and  _88
REMARK   38  A    between atoms: _88  and  _89
REMARK   39  A    between atoms: _92  and  _94
REMARK   40  A    between atoms: _94  and  _95
REMARK   41  A    between atoms: _94  and  _97
REMARK   42  A    between atoms: _100  and  _102
REMARK   43  A    between atoms: _102  and  _103
REMARK   44  A    between atoms: _102  and  _105
REMARK   45  A    between atoms: _105  and  _106
REMARK   46  A    between atoms: _106  and  _107
REMARK   47  A    between atoms: _109  and  _111
REMARK   48  A    between atoms: _111  and  _112
REMARK   49  A    between atoms: _111  and  _114
REMARK   50  A    between atoms: _114  and  _115
REMARK   51  A    between atoms: _118  and  _120
REMARK   52  A    between atoms: _120  and  _121
REMARK   53  A    between atoms: _123  and  _125
REMARK   54  A    between atoms: _125  and  _126
REMARK   55  A    between atoms: _128  and  _130
REMARK   56  A    between atoms: _130  and  _131
REMARK   57  A    between atoms: _130  and  _133
REMARK   58  A    between atoms: _133  and  _134
REMARK   59  A    between atoms: _137  and  _139
REMARK   60  A    between atoms: _139  and  _140
REMARK   61  A    between atoms: _142  and  _144
REMARK   62  A    between atoms: _144  and  _145
REMARK   63  A    between atoms: _147  and  _149
REMARK   64  A    between atoms: _149  and  _150
REMARK   65  A    between atoms: _149  and  _152
REMARK   66  A    between atoms: _152  and  _153
REMARK   67  A    between atoms: _159  and  _161
REMARK   68  A    between atoms: _161  and  _162
REMARK   69  A    between atoms: _161  and  _164
REMARK   70  A    between atoms: _164  and  _165
REMARK   71  A    between atoms: _168  and  _170
REMARK   72  A    between atoms: _170  and  _171
REMARK   73  A    between atoms: _170  and  _173
REMARK   74  A    between atoms: _173  and  _174
REMARK   75  A    between atoms: _177  and  _179
REMARK   76  A    between atoms: _179  and  _180
REMARK   77  A    between atoms: _179  and  _182
REMARK   78  A    between atoms: _182  and  _183
REMARK   79  A    between atoms: _187  and  _188
REMARK   80  A    between atoms: _193  and  _195
REMARK   81  A    between atoms: _195  and  _196
REMARK   82  A    between atoms: _195  and  _198
REMARK   83  A    between atoms: _201  and  _203
REMARK   84  A    between atoms: _203  and  _204
REMARK   85  A    between atoms: _203  and  _206
REMARK   86  A    between atoms: _206  and  _207
REMARK   87  A    between atoms: _212  and  _214
REMARK   88  A    between atoms: _214  and  _215
REMARK   89  A    between atoms: _214  and  _217
REMARK   90  A    between atoms: _217  and  _218
REMARK   91  A    between atoms: _221  and  _223
REMARK   92  A    between atoms: _223  and  _224
REMARK   93  A    between atoms: _226  and  _228
REMARK   94  A    between atoms: _228  and  _229
REMARK   95  A    between atoms: _228  and  _231
REMARK   96  A    between atoms: _231  and  _232
REMARK   97  A    between atoms: _232  and  _233
REMARK   98  A    between atoms: _233  and  _234
REMARK   99  A    between atoms: _243  and  _245
REMARK  100  A    between atoms: _245  and  _246
REMARK  101  A    between atoms: _245  and  _248
REMARK  102  A    between atoms: _248  and  _249
REMARK  103  A    between atoms: _254  and  _256
REMARK  104  A    between atoms: _256  and  _257
REMARK  105  A    between atoms: _256  and  _259
REMARK  106  A    between atoms: _259  and  _260
REMARK  107  A    between atoms: _260  and  _261
REMARK  108  A    between atoms: _261  and  _262
REMARK  109  A    between atoms: _271  and  _273
REMARK  110  A    between atoms: _273  and  _274
REMARK  111  A    between atoms: _273  and  _276
REMARK  112  A    between atoms: _276  and  _277
REMARK  113  A    between atoms: _280  and  _282
REMARK  114  A    between atoms: _282  and  _283
REMARK  115  A    between atoms: _282  and  _285
REMARK  116  A    between atoms: _285  and  _286
REMARK  117  A    between atoms: _289  and  _291
REMARK  118  A    between atoms: _291  and  _292
REMARK  119  A    between atoms: _291  and  _294
REMARK  120  A    between atoms: _294  and  _295
REMARK  121  A    between atoms: _298  and  _300
REMARK  122  A    between atoms: _300  and  _301
REMARK  123  A    between atoms: _300  and  _303
REMARK  124  A    between atoms: _303  and  _304
REMARK  125  A    between atoms: _307  and  _309
REMARK  126  A    between atoms: _309  and  _310
REMARK  127  A    between atoms: _309  and  _312
REMARK  128  A    between atoms: _312  and  _313
REMARK  129  A    between atoms: _316  and  _318
REMARK  130  A    between atoms: _318  and  _319
REMARK  131  A    between atoms: _321  and  _323
REMARK  132  A    between atoms: _323  and  _324
REMARK  133  A    between atoms: _327  and  _329
REMARK  134  A    between atoms: _329  and  _330
REMARK  135  A    between atoms: _329  and  _332
REMARK  136  A    between atoms: _332  and  _333
REMARK  137  A    between atoms: _336  and  _338
REMARK  138  A    between atoms: _338  and  _339
REMARK  139  A    between atoms: _338  and  _341
REMARK  140  A    between atoms: _341  and  _342
REMARK  141  A    between atoms: _345  and  _347
REMARK  142  A    between atoms: _347  and  _348
REMARK  143  A    between atoms: _347  and  _350
REMARK  144  A    between atoms: _350  and  _351
REMARK  145  A    between atoms: _354  and  _356
REMARK  146  A    between atoms: _356  and  _357
REMARK  147  A    between atoms: _356  and  _359
REMARK  148  A    between atoms: _362  and  _364
REMARK  149  A    between atoms: _364  and  _365
REMARK  150  A    between atoms: _364  and  _367
REMARK  151  A    between atoms: _367  and  _368
REMARK  152  A    between atoms: _368  and  _369
REMARK  153  A    between atoms: _369  and  _370
REMARK  154  A    between atoms: _370  and  _371
REMARK  155  A    between atoms: _375  and  _377
REMARK  156  A    between atoms: _377  and  _378
REMARK  157  A    between atoms: _377  and  _380
REMARK  158  A    between atoms: _380  and  _381
REMARK  159  A    between atoms: _381  and  _382
REMARK  160  A    between atoms: _384  and  _386
REMARK  161  A    between atoms: _386  and  _387
REMARK  162  A    between atoms: _386  and  _389
REMARK  163  A    between atoms: _389  and  _390
REMARK  164  A    between atoms: _393  and  _395
REMARK  165  A    between atoms: _395  and  _396
REMARK  166  A    between atoms: _398  and  _400
REMARK  167  A    between atoms: _400  and  _401
REMARK  168  A    between atoms: _403  and  _405
REMARK  169  A    between atoms: _405  and  _406
REMARK  170  A    between atoms: _405  and  _408
REMARK  171  A    between atoms: _408  and  _409
REMARK  172  A    between atoms: _412  and  _414
REMARK  173  A    between atoms: _414  and  _415
REMARK  174  A    between atoms: _417  and  _419
REMARK  175  A    between atoms: _419  and  _420
REMARK  176  A    between atoms: _422  and  _424
REMARK  177  A    between atoms: _424  and  _425
REMARK  178  A    between atoms: _424  and  _427
REMARK  179  A    between atoms: _427  and  _428
REMARK  180  A    between atoms: _431  and  _433
REMARK  181  A    between atoms: _433  and  _434
REMARK  182  A    between atoms: _433  and  _436
REMARK  183  A    between atoms: _439  and  _441
REMARK  184  A    between atoms: _441  and  _442
REMARK  185  A    between atoms: _441  and  _444
REMARK  186  A    between atoms: _444  and  _445
REMARK  187  A    between atoms: _449  and  _450
REMARK  188  A    between atoms: _455  and  _457
REMARK  189  A    between atoms: _457  and  _458
REMARK  190  A    between atoms: _457  and  _460
REMARK  191  A    between atoms: _460  and  _461
REMARK  192  A    between atoms: _465  and  _466
REMARK  193  A    between atoms: _471  and  _473
REMARK  194  A    between atoms: _473  and  _474
REMARK  195  A    between atoms: _473  and  _476
REMARK  196  A    between atoms: _479  and  _481
REMARK  197  A    between atoms: _481  and  _482
REMARK  198  A    between atoms: _481  and  _484
REMARK  199  A    between atoms: _484  and  _485
REMARK  200  A    between atoms: _490  and  _492
REMARK  201  A    between atoms: _492  and  _493
REMARK  202  A    between atoms: _492  and  _495
REMARK  203  A    between atoms: _495  and  _496
REMARK  204  A    between atoms: _499  and  _501
REMARK  205  A    between atoms: _501  and  _502
REMARK  206  A    between atoms: _501  and  _504
REMARK  207  A    between atoms: _504  and  _505
REMARK  208  A    between atoms: _508  and  _510
REMARK  209  A    between atoms: _510  and  _511
REMARK  210  A    between atoms: _513  and  _515
REMARK  211  A    between atoms: _515  and  _516
REMARK  212  A    between atoms: _515  and  _518
REMARK  213  A    between atoms: _518  and  _519
REMARK  214  A    between atoms: _519  and  _520
REMARK  215  A    between atoms: _520  and  _521
REMARK  216  A    between atoms: _530  and  _532
REMARK  217  A    between atoms: _532  and  _533
REMARK  218  A    between atoms: _532  and  _535
REMARK  219  A    between atoms: _535  and  _536
REMARK                            x       y       z     vdW  Elec       q    Type
REMARK                         _______ _______ _______ _____ _____    ______ ____
ROOT
ATOM      1  NE  ARG A   1     -18.387  15.229  33.537  0.00  0.00    -0.265 N 
ATOM      2  HE  ARG A   1     -17.712  15.853  34.023  0.00  0.00    +0.259 HD
ATOM      3  CZ  ARG A   1     -18.375  13.934  33.840  0.00  0.00    +0.342 C 
ATOM      4  NH2 ARG A   1     -17.517  13.484  34.743  0.00  0.00    -0.292 N 
ATOM      5 HH21 ARG A   1     -16.860  14.142  35.209  0.00  0.00    +0.255 HD
ATOM      6 HH22 ARG A   1     -17.501  12.473  34.986  0.00  0.00    +0.255 HD
ATOM      7  NH1 ARG A   1     -19.207  13.076  33.255  0.00  0.00    -0.292 N 
ATOM      8 HH11 ARG A   1     -19.178  12.068  33.509  0.00  0.00    +0.255 HD
ATOM      9 HH12 ARG A   1     -19.886  13.413  32.543  0.00  0.00    +0.255 HD
ENDROOT
BRANCH   1  10
ATOM     10  CD  ARG A   1     -19.300  15.827  32.555  0.00  0.00    +0.174 C 
BRANCH  10  11
ATOM     11  CG  ARG A   1     -19.709  17.208  33.008  0.00  0.00    +0.045 C 
BRANCH  11  12
ATOM     12  CB  ARG A   1     -20.692  17.892  32.052  0.00  0.00    +0.029 C 
BRANCH  12  13
ATOM     13  CA  ARG A   1     -20.738  19.398  32.353  0.00  0.00    +0.133 C 
BRANCH  13  14
ATOM     14  N   ARG A   1     -21.266  19.644  33.697  0.00  0.00    -0.239 NA
ATOM     15  H   ARG A   1     -21.481  18.830  34.308  0.00  0.00    +0.142 HD
ENDBRANCH  13  14
BRANCH  13  16
ATOM     16  C   ARG A   1     -21.578  20.068  31.270  0.00  0.00    +0.224 C 
ATOM     17  O   ARG A   1     -22.801  19.875  31.301  0.00  0.00    -0.287 OA
ENDBRANCH  13  16
ENDBRANCH  12  13
ENDBRANCH  11  12
ENDBRANCH  10  11
ENDBRANCH   1  10
TORSDOF 6
REMARK  Name = ../refined-set-2016/1zpa/1zpa_pocket.pdb
REMARK  219 active torsions:
REMARK  status: ('A' for Active; 'I' for Inactive)
REMARK    1  A    between atoms: _1  and  _3
REMARK    2  A    between atoms: _3  and  _4
REMARK    3  A    between atoms: _3  and  _6
REMARK    4  A    between atoms: _6  and  _7
REMARK    5  A    between atoms: _7  and  _8
REMARK    6  A    between atoms: _8  and  _9
REMARK    7  A    between atoms: _18  and  _20
REMARK    8  A    between atoms: _20  and  _21
REMARK    9  A    between atoms: _20  and  _23
REMARK   10  A    between atoms: _23  and  _24
REMARK   11  A    between atoms: _27  and  _29
REMARK   12  A    between atoms: _29  and  _30
REMARK   13  A    between atoms: _29  and  _32
REMARK   14  A    between atoms: _32  and  _33
REMARK   15  A    between atoms: _36  and  _38
REMARK   16  A    between atoms: _38  and  _39
REMARK   17  A    between atoms: _38  and  _41
REMARK   18  A    between atoms: _41  and  _42
REMARK   19  A    between atoms: _45  and  _47
REMARK   20  A    between atoms: _47  and  _48
REMARK   21  A    between atoms: _47  and  _50
REMARK   22  A    between atoms: _50  and  _51
REMARK   23  A    between atoms: _54  and  _56
REMARK   24  A    between atoms: _56  and  _57
REMARK   25  A    between atoms: _59  and  _61
REMARK   26  A    between atoms: _61  and  _62
REMARK   27  A    between atoms: _65  and  _67
REMARK   28  A    between atoms: _67  and  _68
REMARK   29  A    between atoms: _67  and  _70
REMARK   30  A    between atoms: _70  and  _71
REMARK   31  A    between atoms: _74  and  _76
REMARK   32  A    between atoms: _76  and  _77
REMARK   33  A    between atoms: _76  and  _79
REMARK   34  A    between atoms: _79  and  _80
REMARK   35  A    between atoms: _83  and  _85
REMARK   36  A    between atoms: _85  and  _86
REMARK   37  A    between atoms: _85  and  _88
REMARK   38  A    between atoms: _88  and  _89
REMARK   39  A    between atoms: _92  and  _94
REMARK   40  A    between atoms: _94  and  _95
REMARK   41  A    between atoms: _94  and  _97
REMARK   42  A    between atoms: _100  and  _102
REMARK   43  A    between atoms: _102  and  _103
REMARK   44  A    between atoms: _102  and  _105
REMARK   45  A    between atoms: _105  and  _106
REMARK   46  A    between atoms: _106  and  _107
REMARK   47  A    between atoms: _109  and  _111
REMARK   48  A    between atoms: _111  and  _112
REMARK   49  A    between atoms: _111  and  _114
REMARK   50  A    between atoms: _114  and  _115
REMARK   51  A    between atoms: _118  and  _120
REMARK   52  A    between atoms: _120  and  _121
REMARK   53  A    between atoms: _123  and  _125
REMARK   54  A    between atoms: _125  and  _126
REMARK   55  A    between atoms: _128  and  _130
REMARK   56  A    between atoms: _130  and  _131
REMARK   57  A    between atoms: _130  and  _133
REMARK   58  A    between atoms: _133  and  _134
REMARK   59  A    between atoms: _137  and  _139
REMARK   60  A    between atoms: _139  and  _140
REMARK   61  A    between atoms: _142  and  _144
REMARK   62  A    between atoms: _144  and  _145
REMARK   63  A    between atoms: _147  and  _149
REMARK   64  A    between atoms: _149  and  _150
REMARK   65  A    between atoms: _149  and  _152
REMARK   66  A    between atoms: _152  and  _153
REMARK   67  A    between atoms: _159  and  _161
REMARK   68  A    between atoms: _161  and  _162
REMARK   69  A    between atoms: _161  and  _164
REMARK   70  A    between atoms: _164  and  _165
REMARK   71  A    between atoms: _168  and  _170
REMARK   72  A    between atoms: _170  and  _171
REMARK   73  A    between atoms: _170  and  _173
REMARK   74  A    between atoms: _173  and  _174
REMARK   75  A    between atoms: _177  and  _179
REMARK   76  A    between atoms: _179  and  _180
REMARK   77  A    between atoms: _179  and  _182
REMARK   78  A    between atoms: _182  and  _183
REMARK   79  A    between atoms: _187  and  _188
REMARK   80  A    between atoms: _193  and  _195
REMARK   81  A    between atoms: _195  and  _196
REMARK   82  A    between atoms: _195  and  _198
REMARK   83  A    between atoms: _201  and  _203
REMARK   84  A    between atoms: _203  and  _204
REMARK   85  A    between atoms: _203  and  _206
REMARK   86  A    between atoms: _206  and  _207
REMARK   87  A    between atoms: _212  and  _214
REMARK   88  A    between atoms: _214  and  _215
REMARK   89  A    between atoms: _214  and  _217
REMARK   90  A    between atoms: _217  and  _218
REMARK   91  A    between atoms: _221  and  _223
REMARK   92  A    between atoms: _223  and  _224
REMARK   93  A    between atoms: _226  and  _228
REMARK   94  A    between atoms: _228  and  _229
REMARK   95  A    between atoms: _228  and  _231
REMARK   96  A    between atoms: _231  and  _232
REMARK   97  A    between atoms: _232  and  _233
REMARK   98  A    between atoms: _233  and  _234
REMARK   99  A    between atoms: _243  and  _245
REMARK  100  A    between atoms: _245  and  _246
REMARK  101  A    between atoms: _245  and  _248
REMARK  102  A    between atoms: _248  and  _249
REMARK  103  A    between atoms: _254  and  _256
REMARK  104  A    between atoms: _256  and  _257
REMARK  105  A    between atoms: _256  and  _259
REMARK  106  A    between atoms: _259  and  _260
REMARK  107  A    between atoms: _260  and  _261
REMARK  108  A    between atoms: _261  and  _262
REMARK  109  A    between atoms: _271  and  _273
REMARK  110  A    between atoms: _273  and  _274
REMARK  111  A    between atoms: _273  and  _276
REMARK  112  A    between atoms: _276  and  _277
REMARK  113  A    between atoms: _280  and  _282
REMARK  114  A    between atoms: _282  and  _283
REMARK  115  A    between atoms: _282  and  _285
REMARK  116  A    between atoms: _285  and  _286
REMARK  117  A    between atoms: _289  and  _291
REMARK  118  A    between atoms: _291  and  _292
REMARK  119  A    between atoms: _291  and  _294
REMARK  120  A    between atoms: _294  and  _295
REMARK  121  A    between atoms: _298  and  _300
REMARK  122  A    between atoms: _300  and  _301
REMARK  123  A    between atoms: _300  and  _303
REMARK  124  A    between atoms: _303  and  _304
REMARK  125  A    between atoms: _307  and  _309
REMARK  126  A    between atoms: _309  and  _310
REMARK  127  A    between atoms: _309  and  _312
REMARK  128  A    between atoms: _312  and  _313
REMARK  129  A    between atoms: _316  and  _318
REMARK  130  A    between atoms: _318  and  _319
REMARK  131  A    between atoms: _321  and  _323
REMARK  132  A    between atoms: _323  and  _324
REMARK  133  A    between atoms: _327  and  _329
REMARK  134  A    between atoms: _329  and  _330
REMARK  135  A    between atoms: _329  and  _332
REMARK  136  A    between atoms: _332  and  _333
REMARK  137  A    between atoms: _336  and  _338
REMARK  138  A    between atoms: _338  and  _339
REMARK  139  A    between atoms: _338  and  _341
REMARK  140  A    between atoms: _341  and  _342
REMARK  141  A    between atoms: _345  and  _347
REMARK  142  A    between atoms: _347  and  _348
REMARK  143  A    between atoms: _347  and  _350
REMARK  144  A    between atoms: _350  and  _351
REMARK  145  A    between atoms: _354  and  _356
REMARK  146  A    between atoms: _356  and  _357
REMARK  147  A    between atoms: _356  and  _359
REMARK  148  A    between atoms: _362  and  _364
REMARK  149  A    between atoms: _364  and  _365
REMARK  150  A    between atoms: _364  and  _367
REMARK  151  A    between atoms: _367  and  _368
REMARK  152  A    between atoms: _368  and  _369
REMARK  153  A    between atoms: _369  and  _370
REMARK  154  A    between atoms: _370  and  _371
REMARK  155  A    between atoms: _375  and  _377
REMARK  156  A    between atoms: _377  and  _378
REMARK  157  A    between atoms: _377  and  _380
REMARK  158  A    between atoms: _380  and  _381
REMARK  159  A    between atoms: _381  and  _382
REMARK  160  A    between atoms: _384  and  _386
REMARK  161  A    between atoms: _386  and  _387
REMARK  162  A    between atoms: _386  and  _389
REMARK  163  A    between atoms: _389  and  _390
REMARK  164  A    between atoms: _393  and  _395
REMARK  165  A    between atoms: _395  and  _396
REMARK  166  A    between atoms: _398  and  _400
REMARK  167  A    between atoms: _400  and  _401
REMARK  168  A    between atoms: _403  and  _405
REMARK  169  A    between atoms: _405  and  _406
REMARK  170  A    between atoms: _405  and  _408
REMARK  171  A    between atoms: _408  and  _409
REMARK  172  A    between atoms: _412  and  _414
REMARK  173  A    between atoms: _414  and  _415
REMARK  174  A    between atoms: _417  and  _419
REMARK  175  A    between atoms: _419  and  _420
REMARK  176  A    between atoms: _422  and  _424
REMARK  177  A    between atoms: _424  and  _425
REMARK  178  A    between atoms: _424  and  _427
REMARK  179  A    between atoms: _427  and  _428
REMARK  180  A    between atoms: _431  and  _433
REMARK  181  A    between atoms: _433  and  _434
REMARK  182  A    between atoms: _433  and  _436
REMARK  183  A    between atoms: _439  and  _441
REMARK  184  A    between atoms: _441  and  _442
REMARK  185  A    between atoms: _441  and  _444
REMARK  186  A    between atoms: _444  and  _445
REMARK  187  A    between atoms: _449  and  _450
REMARK  188  A    between atoms: _455  and  _457
REMARK  189  A    between atoms: _457  and  _458
REMARK  190  A    between atoms: _457  and  _460
REMARK  191  A    between atoms: _460  and  _461
REMARK  192  A    between atoms: _465  and  _466
REMARK  193  A    between atoms: _471  and  _473
REMARK  194  A    between atoms: _473  and  _474
REMARK  195  A    between atoms: _473  and  _476
REMARK  196  A    between atoms: _479  and  _481
REMARK  197  A    between atoms: _481  and  _482
REMARK  198  A    between atoms: _481  and  _484
REMARK  199  A    between atoms: _484  and  _485
REMARK  200  A    between atoms: _490  and  _492
REMARK  201  A    between atoms: _492  and  _493
REMARK  202  A    between atoms: _492  and  _495
REMARK  203  A    between atoms: _495  and  _496
REMARK  204  A    between atoms: _499  and  _501
REMARK  205  A    between atoms: _501  and  _502
REMARK  206  A    between atoms: _501  and  _504
REMARK  207  A    between atoms: _504  and  _505
REMARK  208  A    between atoms: _508  and  _510
REMARK  209  A    between atoms: _510  and  _511
REMARK  210  A    between atoms: _513  and  _515
REMARK  211  A    between atoms: _515  and  _516
REMARK  212  A    between atoms: _515  and  _518
REMARK  213  A    between atoms: _518  and  _519
REMARK  214  A    between atoms: _519  and  _520
REMARK  215  A    between atoms: _520  and  _521
REMARK  216  A    between atoms: _530  and  _532
REMARK  217  A    between atoms: _532  and  _533
REMARK  218  A    between atoms: _532  and  _535
REMARK  219  A    between atoms: _535  and  _536
REMARK                            x       y       z     vdW  Elec       q    Type
REMARK                         _______ _______ _______ _____ _____    ______ ____
ROOT
ATOM      1  CA  LEU A   1     -23.544  18.665  27.588  0.00  0.00    +0.133 C 
ENDROOT
BRANCH   1   2
ATOM      2  N   LEU A   1     -23.052  19.692  28.490  0.00  0.00    -0.239 NA
ATOM      3  H   LEU A   1     -23.502  19.788  29.423  0.00  0.00    +0.142 HD
ENDBRANCH   1   2
BRANCH   1   4
ATOM      4  C   LEU A   1     -24.671  19.199  26.712  0.00  0.00    +0.224 C 
ATOM      5  O   LEU A   1     -25.586  19.811  27.251  0.00  0.00    -0.287 OA
ENDBRANCH   1   4
BRANCH   1   6
ATOM      6  CB  LEU A   1     -24.107  17.454  28.335  0.00  0.00    +0.025 C 
BRANCH   6   7
ATOM      7  CG  LEU A   1     -23.130  16.740  29.263  0.00  0.00    +0.002 C 
ATOM      8  CD2 LEU A   1     -23.772  15.466  29.798  0.00  0.00    +0.000 C 
ATOM      9  CD1 LEU A   1     -21.821  16.440  28.551  0.00  0.00    +0.000 C 
ENDBRANCH   6   7
ENDBRANCH   1   6
TORSDOF 4
REMARK  Name = ../refined-set-2016/1zpa/1zpa_pocket.pdb
REMARK  219 active torsions:
REMARK  status: ('A' for Active; 'I' for Inactive)
REMARK    1  A    between atoms: _1  and  _3
REMARK    2  A    between atoms: _3  and  _4
REMARK    3  A    between atoms: _3  and  _6
REMARK    4  A    between atoms: _6  and  _7
REMARK    5  A    between atoms: _7  and  _8
REMARK    6  A    between atoms: _8  and  _9
REMARK    7  A    between atoms: _18  and  _20
REMARK    8  A    between atoms: _20  and  _21
REMARK    9  A    between atoms: _20  and  _23
REMARK   10  A    between atoms: _23  and  _24
REMARK   11  A    between atoms: _27  and  _29
REMARK   12  A    between atoms: _29  and  _30
REMARK   13  A    between atoms: _29  and  _32
REMARK   14  A    between atoms: _32  and  _33
REMARK   15  A    between atoms: _36  and  _38
REMARK   16  A    between atoms: _38  and  _39
REMARK   17  A    between atoms: _38  and  _41
REMARK   18  A    between atoms: _41  and  _42
REMARK   19  A    between atoms: _45  and  _47
REMARK   20  A    between atoms: _47  and  _48
REMARK   21  A    between atoms: _47  and  _50
REMARK   22  A    between atoms: _50  and  _51
REMARK   23  A    between atoms: _54  and  _56
REMARK   24  A    between atoms: _56  and  _57
REMARK   25  A    between atoms: _59  and  _61
REMARK   26  A    between atoms: _61  and  _62
REMARK   27  A    between atoms: _65  and  _67
REMARK   28  A    between atoms: _67  and  _68
REMARK   29  A    between atoms: _67  and  _70
REMARK   30  A    between atoms: _70  and  _71
REMARK   31  A    between atoms: _74  and  _76
REMARK   32  A    between atoms: _76  and  _77
REMARK   33  A    between atoms: _76  and  _79
REMARK   34  A    between atoms: _79  and  _80
REMARK   35  A    between atoms: _83  and  _85
REMARK   36  A    between atoms: _85  and  _86
REMARK   37  A    between atoms: _85  and  _88
REMARK   38  A    between atoms: _88  and  _89
REMARK   39  A    between atoms: _92  and  _94
REMARK   40  A    between atoms: _94  and  _95
REMARK   41  A    between atoms: _94  and  _97
REMARK   42  A    between atoms: _100  and  _102
REMARK   43  A    between atoms: _102  and  _103
REMARK   44  A    between atoms: _102  and  _105
REMARK   45  A    between atoms: _105  and  _106
REMARK   46  A    between atoms: _106  and  _107
REMARK   47  A    between atoms: _109  and  _111
REMARK   48  A    between atoms: _111  and  _112
REMARK   49  A    between atoms: _111  and  _114
REMARK   50  A    between atoms: _114  and  _115
REMARK   51  A    between atoms: _118  and  _120
REMARK   52  A    between atoms: _120  and  _121
REMARK   53  A    between atoms: _123  and  _125
REMARK   54  A    between atoms: _125  and  _126
REMARK   55  A    between atoms: _128  and  _130
REMARK   56  A    between atoms: _130  and  _131
REMARK   57  A    between atoms: _130  and  _133
REMARK   58  A    between atoms: _133  and  _134
REMARK   59  A    between atoms: _137  and  _139
REMARK   60  A    between atoms: _139  and  _140
REMARK   61  A    between atoms: _142  and  _144
REMARK   62  A    between atoms: _144  and  _145
REMARK   63  A    between atoms: _147  and  _149
REMARK   64  A    between atoms: _149  and  _150
REMARK   65  A    between atoms: _149  and  _152
REMARK   66  A    between atoms: _152  and  _153
REMARK   67  A    between atoms: _159  and  _161
REMARK   68  A    between atoms: _161  and  _162
REMARK   69  A    between atoms: _161  and  _164
REMARK   70  A    between atoms: _164  and  _165
REMARK   71  A    between atoms: _168  and  _170
REMARK   72  A    between atoms: _170  and  _171
REMARK   73  A    between atoms: _170  and  _173
REMARK   74  A    between atoms: _173  and  _174
REMARK   75  A    between atoms: _177  and  _179
REMARK   76  A    between atoms: _179  and  _180
REMARK   77  A    between atoms: _179  and  _182
REMARK   78  A    between atoms: _182  and  _183
REMARK   79  A    between atoms: _187  and  _188
REMARK   80  A    between atoms: _193  and  _195
REMARK   81  A    between atoms: _195  and  _196
REMARK   82  A    between atoms: _195  and  _198
REMARK   83  A    between atoms: _201  and  _203
REMARK   84  A    between atoms: _203  and  _204
REMARK   85  A    between atoms: _203  and  _206
REMARK   86  A    between atoms: _206  and  _207
REMARK   87  A    between atoms: _212  and  _214
REMARK   88  A    between atoms: _214  and  _215
REMARK   89  A    between atoms: _214  and  _217
REMARK   90  A    between atoms: _217  and  _218
REMARK   91  A    between atoms: _221  and  _223
REMARK   92  A    between atoms: _223  and  _224
REMARK   93  A    between atoms: _226  and  _228
REMARK   94  A    between atoms: _228  and  _229
REMARK   95  A    between atoms: _228  and  _231
REMARK   96  A    between atoms: _231  and  _232
REMARK   97  A    between atoms: _232  and  _233
REMARK   98  A    between atoms: _233  and  _234
REMARK   99  A    between atoms: _243  and  _245
REMARK  100  A    between atoms: _245  and  _246
REMARK  101  A    between atoms: _245  and  _248
REMARK  102  A    between atoms: _248  and  _249
REMARK  103  A    between atoms: _254  and  _256
REMARK  104  A    between atoms: _256  and  _257
REMARK  105  A    between atoms: _256  and  _259
REMARK  106  A    between atoms: _259  and  _260
REMARK  107  A    between atoms: _260  and  _261
REMARK  108  A    between atoms: _261  and  _262
REMARK  109  A    between atoms: _271  and  _273
REMARK  110  A    between atoms: _273  and  _274
REMARK  111  A    between atoms: _273  and  _276
REMARK  112  A    between atoms: _276  and  _277
REMARK  113  A    between atoms: _280  and  _282
REMARK  114  A    between atoms: _282  and  _283
REMARK  115  A    between atoms: _282  and  _285
REMARK  116  A    between atoms: _285  and  _286
REMARK  117  A    between atoms: _289  and  _291
REMARK  118  A    between atoms: _291  and  _292
REMARK  119  A    between atoms: _291  and  _294
REMARK  120  A    between atoms: _294  and  _295
REMARK  121  A    between atoms: _298  and  _300
REMARK  122  A    between atoms: _300  and  _301
REMARK  123  A    between atoms: _300  and  _303
REMARK  124  A    between atoms: _303  and  _304
REMARK  125  A    between atoms: _307  and  _309
REMARK  126  A    between atoms: _309  and  _310
REMARK  127  A    between atoms: _309  and  _312
REMARK  128  A    between atoms: _312  and  _313
REMARK  129  A    between atoms: _316  and  _318
REMARK  130  A    between atoms: _318  and  _319
REMARK  131  A    between atoms: _321  and  _323
REMARK  132  A    between atoms: _323  and  _324
REMARK  133  A    between atoms: _327  and  _329
REMARK  134  A    between atoms: _329  and  _330
REMARK  135  A    between atoms: _329  and  _332
REMARK  136  A    between atoms: _332  and  _333
REMARK  137  A    between atoms: _336  and  _338
REMARK  138  A    between atoms: _338  and  _339
REMARK  139  A    between atoms: _338  and  _341
REMARK  140  A    between atoms: _341  and  _342
REMARK  141  A    between atoms: _345  and  _347
REMARK  142  A    between atoms: _347  and  _348
REMARK  143  A    between atoms: _347  and  _350
REMARK  144  A    between atoms: _350  and  _351
REMARK  145  A    between atoms: _354  and  _356
REMARK  146  A    between atoms: _356  and  _357
REMARK  147  A    between atoms: _356  and  _359
REMARK  148  A    between atoms: _362  and  _364
REMARK  149  A    between atoms: _364  and  _365
REMARK  150  A    between atoms: _364  and  _367
REMARK  151  A    between atoms: _367  and  _368
REMARK  152  A    between atoms: _368  and  _369
REMARK  153  A    between atoms: _369  and  _370
REMARK  154  A    between atoms: _370  and  _371
REMARK  155  A    between atoms: _375  and  _377
REMARK  156  A    between atoms: _377  and  _378
REMARK  157  A    between atoms: _377  and  _380
REMARK  158  A    between atoms: _380  and  _381
REMARK  159  A    between atoms: _381  and  _382
REMARK  160  A    between atoms: _384  and  _386
REMARK  161  A    between atoms: _386  and  _387
REMARK  162  A    between atoms: _386  and  _389
REMARK  163  A    between atoms: _389  and  _390
REMARK  164  A    between atoms: _393  and  _395
REMARK  165  A    between atoms: _395  and  _396
REMARK  166  A    between atoms: _398  and  _400
REMARK  167  A    between atoms: _400  and  _401
REMARK  168  A    between atoms: _403  and  _405
REMARK  169  A    between atoms: _405  and  _406
REMARK  170  A    between atoms: _405  and  _408
REMARK  171  A    between atoms: _408  and  _409
REMARK  172  A    between atoms: _412  and  _414
REMARK  173  A    between atoms: _414  and  _415
REMARK  174  A    between atoms: _417  and  _419
REMARK  175  A    between atoms: _419  and  _420
REMARK  176  A    between atoms: _422  and  _424
REMARK  177  A    between atoms: _424  and  _425
REMARK  178  A    between atoms: _424  and  _427
REMARK  179  A    between atoms: _427  and  _428
REMARK  180  A    between atoms: _431  and  _433
REMARK  181  A    between atoms: _433  and  _434
REMARK  182  A    between atoms: _433  and  _436
REMARK  183  A    between atoms: _439  and  _441
REMARK  184  A    between atoms: _441  and  _442
REMARK  185  A    between atoms: _441  and  _444
REMARK  186  A    between atoms: _444  and  _445
REMARK  187  A    between atoms: _449  and  _450
REMARK  188  A    between atoms: _455  and  _457
REMARK  189  A    between atoms: _457  and  _458
REMARK  190  A    between atoms: _457  and  _460
REMARK  191  A    between atoms: _460  and  _461
REMARK  192  A    between atoms: _465  and  _466
REMARK  193  A    between atoms: _471  and  _473
REMARK  194  A    between atoms: _473  and  _474
REMARK  195  A    between atoms: _473  and  _476
REMARK  196  A    between atoms: _479  and  _481
REMARK  197  A    between atoms: _481  and  _482
REMARK  198  A    between atoms: _481  and  _484
REMARK  199  A    between atoms: _484  and  _485
REMARK  200  A    between atoms: _490  and  _492
REMARK  201  A    between atoms: _492  and  _493
REMARK  202  A    between atoms: _492  and  _495
REMARK  203  A    between atoms: _495  and  _496
REMARK  204  A    between atoms: _499  and  _501
REMARK  205  A    between atoms: _501  and  _502
REMARK  206  A    between atoms: _501  and  _504
REMARK  207  A    between atoms: _504  and  _505
REMARK  208  A    between atoms: _508  and  _510
REMARK  209  A    between atoms: _510  and  _511
REMARK  210  A    between atoms: _513  and  _515
REMARK  211  A    between atoms: _515  and  _516
REMARK  212  A    between atoms: _515  and  _518
REMARK  213  A    between atoms: _518  and  _519
REMARK  214  A    between atoms: _519  and  _520
REMARK  215  A    between atoms: _520  and  _521
REMARK  216  A    between atoms: _530  and  _532
REMARK  217  A    between atoms: _532  and  _533
REMARK  218  A    between atoms: _532  and  _535
REMARK  219  A    between atoms: _535  and  _536
REMARK                            x       y       z     vdW  Elec       q    Type
REMARK                         _______ _______ _______ _____ _____    ______ ____
ROOT
ATOM      1  C   GLY A   5      -9.488  21.154  24.305  0.00  0.00    +0.243 C 
ATOM      2  O   GLY A   5      -8.405  20.570  24.287  0.00  0.00    -0.273 OA
ATOM      3  N   ALA A   6     -10.419  20.987  23.372  0.00  0.00    -0.297 N 
ATOM      4  H   ALA A   6     -11.305  21.523  23.465  0.00  0.00    +0.150 HD
ENDROOT
BRANCH   3   5
ATOM      5  CA  ALA A   6     -10.274  20.100  22.230  0.00  0.00    +0.149 C 
ATOM      6  CB  ALA A   6     -11.513  19.202  22.134  0.00  0.00    +0.031 C 
BRANCH   5   7
ATOM      7  C   ALA A   6     -10.102  20.881  20.936  0.00  0.00    +0.241 C 
ATOM      8  O   ALA A   6     -10.961  21.678  20.549  0.00  0.00    -0.273 OA
ATOM      9  N   ASP A   7      -9.000  20.735  20.200  0.00  0.00    -0.297 N 
ATOM     10  H   ASP A   7      -8.211  20.149  20.540  0.00  0.00    +0.150 HD
BRANCH   9  11
ATOM     11  CA  ASP A   7      -8.919  21.412  18.906  0.00  0.00    +0.160 C 
BRANCH  11  12
ATOM     12  C   ASP A   7      -9.995  20.883  17.951  0.00  0.00    +0.241 C 
ATOM     13  N   ASP A   8     -10.246  19.590  18.125  0.00  0.00    -0.297 N 
ATOM     14  H   ASP A   8      -9.886  19.151  18.997  0.00  0.00    +0.150 HD
ATOM     15  O   ASP A   7     -10.532  21.596  17.119  0.00  0.00    -0.273 OA
BRANCH  13  16
ATOM     16  CA  ASP A   8     -10.975  18.737  17.211  0.00  0.00    +0.160 C 
BRANCH  16  17
ATOM     17  C   ASP A   8     -12.190  18.093  17.875  0.00  0.00    +0.241 C 
ATOM     18  O   ASP A   8     -12.255  17.995  19.100  0.00  0.00    -0.273 OA
ATOM     19  N   THR A   9     -13.113  17.681  17.021  0.00  0.00    -0.295 N 
ATOM     20  H   THR A   9     -12.941  17.825  16.006  0.00  0.00    +0.150 HD
BRANCH  19  21
ATOM     21  CA  THR A   9     -14.365  17.033  17.425  0.00  0.00    +0.176 C 
BRANCH  21  22
ATOM     22  C   THR A   9     -14.194  15.534  17.291  0.00  0.00    +0.243 C 
ATOM     23  N   VAL A  10     -14.412  14.815  18.376  0.00  0.00    -0.298 N 
ATOM     24  H   VAL A  10     -14.734  15.278  19.250  0.00  0.00    +0.150 HD
ATOM     25  O   THR A   9     -13.838  15.019  16.226  0.00  0.00    -0.273 OA
BRANCH  23  26
ATOM     26  CA  VAL A  10     -14.202  13.374  18.351  0.00  0.00    +0.137 C 
BRANCH  26  27
ATOM     27  CB  VAL A  10     -12.953  12.976  19.159  0.00  0.00    +0.026 C 
ATOM     28  CG2 VAL A  10     -11.832  13.997  19.002  0.00  0.00    +0.002 C 
ATOM     29  CG1 VAL A  10     -12.467  11.588  18.746  0.00  0.00    +0.002 C 
ENDBRANCH  26  27
BRANCH  26  30
ATOM     30  C   VAL A  10     -15.421  12.655  18.926  0.00  0.00    +0.227 C 
ATOM     31  O   VAL A  10     -15.792  12.904  20.071  0.00  0.00    -0.286 OA
ENDBRANCH  26  30
ENDBRANCH  23  26
ENDBRANCH  21  22
BRANCH  21  32
ATOM     32  CB  THR A   9     -15.521  17.564  16.563  0.00  0.00    +0.137 C 
ATOM     33  CG2 THR A   9     -16.852  16.874  16.838  0.00  0.00    +0.034 C 
BRANCH  32  34
ATOM     34  OG1 THR A   9     -15.695  18.951  16.893  0.00  0.00    -0.382 OA
ATOM     35  HG1 THR A   9     -14.859  19.443  16.696  0.00  0.00    +0.210 HD
ENDBRANCH  32  34
ENDBRANCH  21  32
ENDBRANCH  19  21
ENDBRANCH  16  17
BRANCH  16  36
ATOM     36  CB  ASP A   8     -10.063  17.622  16.678  0.00  0.00    +0.143 C 
BRANCH  36  37
ATOM     37  CG  ASP A   8      -9.125  18.113  15.591  0.00  0.00    +0.367 C 
ATOM     38  OD2 ASP A   8      -8.094  17.457  15.335  0.00  0.00    -0.246 OA
ATOM     39  OD1 ASP A   8      -9.426  19.160  14.993  0.00  0.00    -0.246 OA
ENDBRANCH  36  37
ENDBRANCH  16  36
ENDBRANCH  13  16
ENDBRANCH  11  12
BRANCH  11  40
ATOM     40  CB  ASP A   7      -7.557  21.171  18.235  0.00  0.00    +0.143 C 
BRANCH  40  41
ATOM     41  CG  ASP A   7      -6.387  21.629  19.087  0.00  0.00    +0.367 C 
ATOM     42  OD2 ASP A   7      -6.571  22.592  19.862  0.00  0.00    -0.246 OA
ATOM     43  OD1 ASP A   7      -5.288  21.042  18.989  0.00  0.00    -0.246 OA
ENDBRANCH  40  41
ENDBRANCH  11  40
ENDBRANCH   9  11
ENDBRANCH   5   7
ENDBRANCH   3   5
BRANCH   1  44
ATOM     44  CA  GLY A   5      -9.801  22.116  25.440  0.00  0.00    +0.176 C 
BRANCH  44  46
ATOM     45  C   THR A   4     -11.407  23.776  24.686  0.00  0.00    +0.243 C 
ATOM     46  N   GLY A   5     -11.150  22.659  25.366  0.00  0.00    -0.295 N 
ATOM     47  H   GLY A   5     -11.926  22.167  25.852  0.00  0.00    +0.150 HD
ATOM     48  O   THR A   4     -10.544  24.419  24.082  0.00  0.00    -0.273 OA
BRANCH  45  49
ATOM     49  CA  THR A   4     -12.853  24.274  24.690  0.00  0.00    +0.176 C 
BRANCH  49  51
ATOM     50  C   ASP A   3     -13.953  22.123  24.448  0.00  0.00    +0.241 C 
ATOM     51  N   THR A   4     -13.780  23.245  25.156  0.00  0.00    -0.295 N 
ATOM     52  H   THR A   4     -14.307  23.385  26.041  0.00  0.00    +0.150 HD
ATOM     53  O   ASP A   3     -13.333  21.860  23.411  0.00  0.00    -0.273 OA
BRANCH  50  54
ATOM     54  CA  ASP A   3     -14.966  21.118  24.974  0.00  0.00    +0.160 C 
BRANCH  54  57
ATOM     55  C   LEU A   2     -17.323  21.616  25.238  0.00  0.00    +0.241 C 
ATOM     56  O   LEU A   2     -17.190  21.890  26.433  0.00  0.00    -0.273 OA
ATOM     57  N   ASP A   3     -16.299  21.361  24.422  0.00  0.00    -0.297 N 
ATOM     58  H   ASP A   3     -16.448  21.335  23.393  0.00  0.00    +0.150 HD
BRANCH  55  59
ATOM     59  CA  LEU A   2     -18.721  21.493  24.633  0.00  0.00    +0.149 C 
BRANCH  59  61
ATOM     60  C   LEU A   1     -18.949  19.068  24.779  0.00  0.00    +0.238 C 
ATOM     61  N   LEU A   2     -19.334  20.280  25.174  0.00  0.00    -0.297 N 
ATOM     62  H   LEU A   2     -20.089  20.366  25.884  0.00  0.00    +0.150 HD
ATOM     63  O   LEU A   1     -18.185  18.880  23.827  0.00  0.00    -0.274 OA
BRANCH  60  64
ATOM     64  CA  LEU A   1     -19.498  17.878  25.564  0.00  0.00    +0.145 C 
BRANCH  64  65
ATOM     65  N   LEU A   1     -20.139  16.893  24.706  0.00  0.00    -0.238 NA
ATOM     66  H   LEU A   1     -19.532  16.147  24.312  0.00  0.00    +0.142 HD
ENDBRANCH  64  65
BRANCH  64  67
ATOM     67  CB  LEU A   1     -18.342  17.235  26.298  0.00  0.00    +0.026 C 
BRANCH  67  68
ATOM     68  CG  LEU A   1     -18.273  16.971  27.782  0.00  0.00    +0.002 C 
ATOM     69  CD2 LEU A   1     -18.941  18.047  28.620  0.00  0.00    +0.000 C 
ATOM     70  CD1 LEU A   1     -16.792  16.821  28.169  0.00  0.00    +0.000 C 
ENDBRANCH  67  68
ENDBRANCH  64  67
ENDBRANCH  60  64
ENDBRANCH  59  61
BRANCH  59  71
ATOM     71  CB  LEU A   2     -19.566  22.717  24.937  0.00  0.00    +0.029 C 
BRANCH  71  72
ATOM     72  CG  LEU A   2     -21.017  22.668  24.443  0.00  0.00    +0.002 C 
ATOM     73  CD2 LEU A   2     -21.747  23.965  24.792  0.00  0.00    +0.000 C 
ATOM     74  CD1 LEU A   2     -21.030  22.392  22.953  0.00  0.00    +0.000 C 
ENDBRANCH  71  72
ENDBRANCH  59  71
ENDBRANCH  55  59
ENDBRANCH  54  57
BRANCH  54  75
ATOM     75  CB  ASP A   3     -14.533  19.688  24.645  0.00  0.00    +0.143 C 
BRANCH  75  76
ATOM     76  CG  ASP A   3     -13.258  19.262  25.349  0.00  0.00    +0.367 C 
ATOM     77  OD2 ASP A   3     -12.540  20.151  25.847  0.00  0.00    -0.246 OA
ATOM     78  OD1 ASP A   3     -12.964  18.054  25.437  0.00  0.00    -0.246 OA
ENDBRANCH  75  76
ENDBRANCH  54  75
ENDBRANCH  50  54
ENDBRANCH  49  51
BRANCH  49  79
ATOM     79  CB  THR A   4     -12.905  25.561  25.525  0.00  0.00    +0.137 C 
ATOM     80  CG2 THR A   4     -14.284  26.220  25.426  0.00  0.00    +0.034 C 
BRANCH  79  81
ATOM     81  OG1 THR A   4     -12.686  25.238  26.912  0.00  0.00    -0.382 OA
ATOM     82  HG1 THR A   4     -11.798  24.812  27.014  0.00  0.00    +0.210 HD
ENDBRANCH  79  81
ENDBRANCH  49  79
ENDBRANCH  45  49
ENDBRANCH  44  46
ENDBRANCH   1  44
TORSDOF 35
REMARK  Name = ../refined-set-2016/1zpa/1zpa_pocket.pdb
REMARK  219 active torsions:
REMARK  status: ('A' for Active; 'I' for Inactive)
REMARK    1  A    between atoms: _1  and  _3
REMARK    2  A    between atoms: _3  and  _4
REMARK    3  A    between atoms: _3  and  _6
REMARK    4  A    between atoms: _6  and  _7
REMARK    5  A    between atoms: _7  and  _8
REMARK    6  A    between atoms: _8  and  _9
REMARK    7  A    between atoms: _18  and  _20
REMARK    8  A    between atoms: _20  and  _21
REMARK    9  A    between atoms: _20  and  _23
REMARK   10  A    between atoms: _23  and  _24
REMARK   11  A    between atoms: _27  and  _29
REMARK   12  A    between atoms: _29  and  _30
REMARK   13  A    between atoms: _29  and  _32
REMARK   14  A    between atoms: _32  and  _33
REMARK   15  A    between atoms: _36  and  _38
REMARK   16  A    between atoms: _38  and  _39
REMARK   17  A    between atoms: _38  and  _41
REMARK   18  A    between atoms: _41  and  _42
REMARK   19  A    between atoms: _45  and  _47
REMARK   20  A    between atoms: _47  and  _48
REMARK   21  A    between atoms: _47  and  _50
REMARK   22  A    between atoms: _50  and  _51
REMARK   23  A    between atoms: _54  and  _56
REMARK   24  A    between atoms: _56  and  _57
REMARK   25  A    between atoms: _59  and  _61
REMARK   26  A    between atoms: _61  and  _62
REMARK   27  A    between atoms: _65  and  _67
REMARK   28  A    between atoms: _67  and  _68
REMARK   29  A    between atoms: _67  and  _70
REMARK   30  A    between atoms: _70  and  _71
REMARK   31  A    between atoms: _74  and  _76
REMARK   32  A    between atoms: _76  and  _77
REMARK   33  A    between atoms: _76  and  _79
REMARK   34  A    between atoms: _79  and  _80
REMARK   35  A    between atoms: _83  and  _85
REMARK   36  A    between atoms: _85  and  _86
REMARK   37  A    between atoms: _85  and  _88
REMARK   38  A    between atoms: _88  and  _89
REMARK   39  A    between atoms: _92  and  _94
REMARK   40  A    between atoms: _94  and  _95
REMARK   41  A    between atoms: _94  and  _97
REMARK   42  A    between atoms: _100  and  _102
REMARK   43  A    between atoms: _102  and  _103
REMARK   44  A    between atoms: _102  and  _105
REMARK   45  A    between atoms: _105  and  _106
REMARK   46  A    between atoms: _106  and  _107
REMARK   47  A    between atoms: _109  and  _111
REMARK   48  A    between atoms: _111  and  _112
REMARK   49  A    between atoms: _111  and  _114
REMARK   50  A    between atoms: _114  and  _115
REMARK   51  A    between atoms: _118  and  _120
REMARK   52  A    between atoms: _120  and  _121
REMARK   53  A    between atoms: _123  and  _125
REMARK   54  A    between atoms: _125  and  _126
REMARK   55  A    between atoms: _128  and  _130
REMARK   56  A    between atoms: _130  and  _131
REMARK   57  A    between atoms: _130  and  _133
REMARK   58  A    between atoms: _133  and  _134
REMARK   59  A    between atoms: _137  and  _139
REMARK   60  A    between atoms: _139  and  _140
REMARK   61  A    between atoms: _142  and  _144
REMARK   62  A    between atoms: _144  and  _145
REMARK   63  A    between atoms: _147  and  _149
REMARK   64  A    between atoms: _149  and  _150
REMARK   65  A    between atoms: _149  and  _152
REMARK   66  A    between atoms: _152  and  _153
REMARK   67  A    between atoms: _159  and  _161
REMARK   68  A    between atoms: _161  and  _162
REMARK   69  A    between atoms: _161  and  _164
REMARK   70  A    between atoms: _164  and  _165
REMARK   71  A    between atoms: _168  and  _170
REMARK   72  A    between atoms: _170  and  _171
REMARK   73  A    between atoms: _170  and  _173
REMARK   74  A    between atoms: _173  and  _174
REMARK   75  A    between atoms: _177  and  _179
REMARK   76  A    between atoms: _179  and  _180
REMARK   77  A    between atoms: _179  and  _182
REMARK   78  A    between atoms: _182  and  _183
REMARK   79  A    between atoms: _187  and  _188
REMARK   80  A    between atoms: _193  and  _195
REMARK   81  A    between atoms: _195  and  _196
REMARK   82  A    between atoms: _195  and  _198
REMARK   83  A    between atoms: _201  and  _203
REMARK   84  A    between atoms: _203  and  _204
REMARK   85  A    between atoms: _203  and  _206
REMARK   86  A    between atoms: _206  and  _207
REMARK   87  A    between atoms: _212  and  _214
REMARK   88  A    between atoms: _214  and  _215
REMARK   89  A    between atoms: _214  and  _217
REMARK   90  A    between atoms: _217  and  _218
REMARK   91  A    between atoms: _221  and  _223
REMARK   92  A    between atoms: _223  and  _224
REMARK   93  A    between atoms: _226  and  _228
REMARK   94  A    between atoms: _228  and  _229
REMARK   95  A    between atoms: _228  and  _231
REMARK   96  A    between atoms: _231  and  _232
REMARK   97  A    between atoms: _232  and  _233
REMARK   98  A    between atoms: _233  and  _234
REMARK   99  A    between atoms: _243  and  _245
REMARK  100  A    between atoms: _245  and  _246
REMARK  101  A    between atoms: _245  and  _248
REMARK  102  A    between atoms: _248  and  _249
REMARK  103  A    between atoms: _254  and  _256
REMARK  104  A    between atoms: _256  and  _257
REMARK  105  A    between atoms: _256  and  _259
REMARK  106  A    between atoms: _259  and  _260
REMARK  107  A    between atoms: _260  and  _261
REMARK  108  A    between atoms: _261  and  _262
REMARK  109  A    between atoms: _271  and  _273
REMARK  110  A    between atoms: _273  and  _274
REMARK  111  A    between atoms: _273  and  _276
REMARK  112  A    between atoms: _276  and  _277
REMARK  113  A    between atoms: _280  and  _282
REMARK  114  A    between atoms: _282  and  _283
REMARK  115  A    between atoms: _282  and  _285
REMARK  116  A    between atoms: _285  and  _286
REMARK  117  A    between atoms: _289  and  _291
REMARK  118  A    between atoms: _291  and  _292
REMARK  119  A    between atoms: _291  and  _294
REMARK  120  A    between atoms: _294  and  _295
REMARK  121  A    between atoms: _298  and  _300
REMARK  122  A    between atoms: _300  and  _301
REMARK  123  A    between atoms: _300  and  _303
REMARK  124  A    between atoms: _303  and  _304
REMARK  125  A    between atoms: _307  and  _309
REMARK  126  A    between atoms: _309  and  _310
REMARK  127  A    between atoms: _309  and  _312
REMARK  128  A    between atoms: _312  and  _313
REMARK  129  A    between atoms: _316  and  _318
REMARK  130  A    between atoms: _318  and  _319
REMARK  131  A    between atoms: _321  and  _323
REMARK  132  A    between atoms: _323  and  _324
REMARK  133  A    between atoms: _327  and  _329
REMARK  134  A    between atoms: _329  and  _330
REMARK  135  A    between atoms: _329  and  _332
REMARK  136  A    between atoms: _332  and  _333
REMARK  137  A    between atoms: _336  and  _338
REMARK  138  A    between atoms: _338  and  _339
REMARK  139  A    between atoms: _338  and  _341
REMARK  140  A    between atoms: _341  and  _342
REMARK  141  A    between atoms: _345  and  _347
REMARK  142  A    between atoms: _347  and  _348
REMARK  143  A    between atoms: _347  and  _350
REMARK  144  A    between atoms: _350  and  _351
REMARK  145  A    between atoms: _354  and  _356
REMARK  146  A    between atoms: _356  and  _357
REMARK  147  A    between atoms: _356  and  _359
REMARK  148  A    between atoms: _362  and  _364
REMARK  149  A    between atoms: _364  and  _365
REMARK  150  A    between atoms: _364  and  _367
REMARK  151  A    between atoms: _367  and  _368
REMARK  152  A    between atoms: _368  and  _369
REMARK  153  A    between atoms: _369  and  _370
REMARK  154  A    between atoms: _370  and  _371
REMARK  155  A    between atoms: _375  and  _377
REMARK  156  A    between atoms: _377  and  _378
REMARK  157  A    between atoms: _377  and  _380
REMARK  158  A    between atoms: _380  and  _381
REMARK  159  A    between atoms: _381  and  _382
REMARK  160  A    between atoms: _384  and  _386
REMARK  161  A    between atoms: _386  and  _387
REMARK  162  A    between atoms: _386  and  _389
REMARK  163  A    between atoms: _389  and  _390
REMARK  164  A    between atoms: _393  and  _395
REMARK  165  A    between atoms: _395  and  _396
REMARK  166  A    between atoms: _398  and  _400
REMARK  167  A    between atoms: _400  and  _401
REMARK  168  A    between atoms: _403  and  _405
REMARK  169  A    between atoms: _405  and  _406
REMARK  170  A    between atoms: _405  and  _408
REMARK  171  A    between atoms: _408  and  _409
REMARK  172  A    between atoms: _412  and  _414
REMARK  173  A    between atoms: _414  and  _415
REMARK  174  A    between atoms: _417  and  _419
REMARK  175  A    between atoms: _419  and  _420
REMARK  176  A    between atoms: _422  and  _424
REMARK  177  A    between atoms: _424  and  _425
REMARK  178  A    between atoms: _424  and  _427
REMARK  179  A    between atoms: _427  and  _428
REMARK  180  A    between atoms: _431  and  _433
REMARK  181  A    between atoms: _433  and  _434
REMARK  182  A    between atoms: _433  and  _436
REMARK  183  A    between atoms: _439  and  _441
REMARK  184  A    between atoms: _441  and  _442
REMARK  185  A    between atoms: _441  and  _444
REMARK  186  A    between atoms: _444  and  _445
REMARK  187  A    between atoms: _449  and  _450
REMARK  188  A    between atoms: _455  and  _457
REMARK  189  A    between atoms: _457  and  _458
REMARK  190  A    between atoms: _457  and  _460
REMARK  191  A    between atoms: _460  and  _461
REMARK  192  A    between atoms: _465  and  _466
REMARK  193  A    between atoms: _471  and  _473
REMARK  194  A    between atoms: _473  and  _474
REMARK  195  A    between atoms: _473  and  _476
REMARK  196  A    between atoms: _479  and  _481
REMARK  197  A    between atoms: _481  and  _482
REMARK  198  A    between atoms: _481  and  _484
REMARK  199  A    between atoms: _484  and  _485
REMARK  200  A    between atoms: _490  and  _492
REMARK  201  A    between atoms: _492  and  _493
REMARK  202  A    between atoms: _492  and  _495
REMARK  203  A    between atoms: _495  and  _496
REMARK  204  A    between atoms: _499  and  _501
REMARK  205  A    between atoms: _501  and  _502
REMARK  206  A    between atoms: _501  and  _504
REMARK  207  A    between atoms: _504  and  _505
REMARK  208  A    between atoms: _508  and  _510
REMARK  209  A    between atoms: _510  and  _511
REMARK  210  A    between atoms: _513  and  _515
REMARK  211  A    between atoms: _515  and  _516
REMARK  212  A    between atoms: _515  and  _518
REMARK  213  A    between atoms: _518  and  _519
REMARK  214  A    between atoms: _519  and  _520
REMARK  215  A    between atoms: _520  and  _521
REMARK  216  A    between atoms: _530  and  _532
REMARK  217  A    between atoms: _532  and  _533
REMARK  218  A    between atoms: _532  and  _535
REMARK  219  A    between atoms: _535  and  _536
REMARK                            x       y       z     vdW  Elec       q    Type
REMARK                         _______ _______ _______ _____ _____    ______ ____
ROOT
ATOM      1  C   ILE A   3      -4.602  11.655  19.528  0.00  0.00    +0.241 C 
ATOM      2  N   GLY A   4      -3.970  12.659  20.119  0.00  0.00    -0.295 N 
ATOM      3  H   GLY A   4      -3.853  13.544  19.585  0.00  0.00    +0.150 HD
ATOM      4  O   ILE A   3      -4.838  10.574  20.069  0.00  0.00    -0.273 OA
ENDROOT
BRANCH   1   5
ATOM      5  CA  ILE A   3      -5.033  11.912  18.087  0.00  0.00    +0.149 C 
BRANCH   5   7
ATOM      6  C   MET A   2      -4.415  10.746  16.116  0.00  0.00    +0.241 C 
ATOM      7  N   ILE A   3      -4.994  10.664  17.315  0.00  0.00    -0.297 N 
ATOM      8  H   ILE A   3      -5.392   9.775  17.679  0.00  0.00    +0.150 HD
ATOM      9  O   MET A   2      -4.075  11.828  15.627  0.00  0.00    -0.273 OA
BRANCH   6  10
ATOM     10  CA  MET A   2      -4.157   9.456  15.350  0.00  0.00    +0.149 C 
BRANCH  10  12
ATOM     11  C   LYS A   1      -5.460   8.845  13.378  0.00  0.00    +0.238 C 
ATOM     12  N   MET A   2      -4.538   9.597  13.957  0.00  0.00    -0.297 N 
ATOM     13  H   MET A   2      -4.063  10.325  13.386  0.00  0.00    +0.150 HD
ATOM     14  O   LYS A   1      -5.996   7.888  13.936  0.00  0.00    -0.274 OA
BRANCH  11  15
ATOM     15  CA  LYS A   1      -5.837   9.261  11.967  0.00  0.00    +0.145 C 
BRANCH  15  16
ATOM     16  N   LYS A   1      -6.383   8.155  11.179  0.00  0.00    -0.238 NA
ATOM     17  H   LYS A   1      -6.825   7.334  11.640  0.00  0.00    +0.142 HD
ENDBRANCH  15  16
BRANCH  15  18
ATOM     18  CB  LYS A   1      -6.864  10.397  12.022  0.00  0.00    +0.026 C 
BRANCH  18  19
ATOM     19  CG  LYS A   1      -6.284  11.798  11.951  0.00  0.00    -0.000 C 
BRANCH  19  20
ATOM     20  CD  LYS A   1      -7.384  12.846  12.030  0.00  0.00    -0.024 C 
BRANCH  20  21
ATOM     21  CE  LYS A   1      -6.867  14.142  12.634  0.00  0.00    -0.086 C 
BRANCH  21  22
ATOM     22  NZ  LYS A   1      -7.246  15.347  11.845  0.00  0.00    +0.380 N 
ATOM     23  HZ1 LYS A   1      -6.865  16.197  12.308  0.00  0.00    -0.089 HD
ATOM     24  HZ2 LYS A   1      -8.283  15.414  11.794  0.00  0.00    -0.089 HD
ATOM     25  HZ3 LYS A   1      -6.855  15.268  10.885  0.00  0.00    -0.089 HD
ENDBRANCH  21  22
ENDBRANCH  20  21
ENDBRANCH  19  20
ENDBRANCH  18  19
ENDBRANCH  15  18
ENDBRANCH  11  15
ENDBRANCH  10  12
BRANCH  10  26
ATOM     26  CB  MET A   2      -2.674   9.117  15.488  0.00  0.00    +0.041 C 
BRANCH  26  27
ATOM     27  CG  MET A   2      -2.359   8.256  16.704  0.00  0.00    +0.060 C 
BRANCH  27  28
ATOM     28  SD  MET A   2      -1.760   6.631  16.185  0.00  0.00    -0.139 S 
ATOM     29  CE  MET A   2      -1.015   7.059  14.607  0.00  0.00    +0.069 C 
ENDBRANCH  27  28
ENDBRANCH  26  27
ENDBRANCH  10  26
ENDBRANCH   6  10
ENDBRANCH   5   7
BRANCH   5  30
ATOM     30  CB  ILE A   3      -6.404  12.588  18.058  0.00  0.00    +0.027 C 
ATOM     31  CG2 ILE A   3      -6.767  13.000  16.631  0.00  0.00    +0.002 C 
BRANCH  30  32
ATOM     32  CG1 ILE A   3      -7.564  11.793  18.657  0.00  0.00    +0.002 C 
ATOM     33  CD1 ILE A   3      -8.851  12.598  18.504  0.00  0.00    +0.000 C 
ENDBRANCH  30  32
ENDBRANCH   5  30
ENDBRANCH   1   5
BRANCH   2  34
ATOM     34  CA  GLY A   4      -3.431  12.600  21.464  0.00  0.00    +0.176 C 
BRANCH  34  35
ATOM     35  C   GLY A   4      -4.346  13.183  22.522  0.00  0.00    +0.243 C 
ATOM     36  N   GLY A   5      -4.199  12.703  23.753  0.00  0.00    -0.295 N 
ATOM     37  H   GLY A   5      -3.444  12.011  23.935  0.00  0.00    +0.150 HD
ATOM     38  O   GLY A   4      -5.194  14.039  22.274  0.00  0.00    -0.273 OA
BRANCH  36  39
ATOM     39  CA  GLY A   5      -5.059  13.112  24.857  0.00  0.00    +0.176 C 
BRANCH  39  40
ATOM     40  C   GLY A   5      -4.347  12.872  26.170  0.00  0.00    +0.243 C 
ATOM     41  N   ILE A   6      -5.023  13.032  27.305  0.00  0.00    -0.297 N 
ATOM     42  H   ILE A   6      -5.977  13.445  27.310  0.00  0.00    +0.150 HD
ATOM     43  O   GLY A   5      -3.171  12.515  26.173  0.00  0.00    -0.273 OA
BRANCH  41  44
ATOM     44  CA  ILE A   6      -4.372  12.604  28.549  0.00  0.00    +0.149 C 
BRANCH  44  45
ATOM     45  C   ILE A   6      -4.289  11.093  28.531  0.00  0.00    +0.241 C 
ATOM     46  N   GLY A   7      -3.235  10.423  28.987  0.00  0.00    -0.295 N 
ATOM     47  H   GLY A   7      -2.368  10.885  29.329  0.00  0.00    +0.150 HD
ATOM     48  O   ILE A   6      -5.216  10.419  28.075  0.00  0.00    -0.273 OA
BRANCH  46  49
ATOM     49  CA  GLY A   7      -3.416   8.967  28.959  0.00  0.00    +0.176 C 
BRANCH  49  50
ATOM     50  C   GLY A   7      -2.805   8.345  27.727  0.00  0.00    +0.243 C 
ATOM     51  O   GLY A   7      -2.468   7.161  27.751  0.00  0.00    -0.273 OA
ATOM     52  N   GLY A   8      -2.640   9.099  26.643  0.00  0.00    -0.296 N 
ATOM     53  H   GLY A   8      -2.987  10.079  26.629  0.00  0.00    +0.150 HD
BRANCH  52  54
ATOM     54  CA  GLY A   8      -1.968   8.539  25.474  0.00  0.00    +0.163 C 
BRANCH  54  55
ATOM     55  C   GLY A   8      -2.700   8.848  24.183  0.00  0.00    +0.229 C 
ATOM     56  O   GLY A   8      -3.257   9.939  24.068  0.00  0.00    -0.286 OA
ENDBRANCH  54  55
ENDBRANCH  52  54
ENDBRANCH  49  50
ENDBRANCH  46  49
ENDBRANCH  44  45
BRANCH  44  57
ATOM     57  CB  ILE A   6      -5.135  13.095  29.781  0.00  0.00    +0.027 C 
ATOM     58  CG2 ILE A   6      -5.308  11.976  30.792  0.00  0.00    +0.002 C 
BRANCH  57  59
ATOM     59  CG1 ILE A   6      -4.503  14.314  30.468  0.00  0.00    +0.002 C 
ATOM     60  CD1 ILE A   6      -5.375  14.838  31.595  0.00  0.00    +0.000 C 
ENDBRANCH  57  59
ENDBRANCH  44  57
ENDBRANCH  41  44
ENDBRANCH  39  40
ENDBRANCH  36  39
ENDBRANCH  34  35
ENDBRANCH   2  34
TORSDOF 28
REMARK  Name = ../refined-set-2016/1zpa/1zpa_pocket.pdb
REMARK  219 active torsions:
REMARK  status: ('A' for Active; 'I' for Inactive)
REMARK    1  A    between atoms: _1  and  _3
REMARK    2  A    between atoms: _3  and  _4
REMARK    3  A    between atoms: _3  and  _6
REMARK    4  A    between atoms: _6  and  _7
REMARK    5  A    between atoms: _7  and  _8
REMARK    6  A    between atoms: _8  and  _9
REMARK    7  A    between atoms: _18  and  _20
REMARK    8  A    between atoms: _20  and  _21
REMARK    9  A    between atoms: _20  and  _23
REMARK   10  A    between atoms: _23  and  _24
REMARK   11  A    between atoms: _27  and  _29
REMARK   12  A    between atoms: _29  and  _30
REMARK   13  A    between atoms: _29  and  _32
REMARK   14  A    between atoms: _32  and  _33
REMARK   15  A    between atoms: _36  and  _38
REMARK   16  A    between atoms: _38  and  _39
REMARK   17  A    between atoms: _38  and  _41
REMARK   18  A    between atoms: _41  and  _42
REMARK   19  A    between atoms: _45  and  _47
REMARK   20  A    between atoms: _47  and  _48
REMARK   21  A    between atoms: _47  and  _50
REMARK   22  A    between atoms: _50  and  _51
REMARK   23  A    between atoms: _54  and  _56
REMARK   24  A    between atoms: _56  and  _57
REMARK   25  A    between atoms: _59  and  _61
REMARK   26  A    between atoms: _61  and  _62
REMARK   27  A    between atoms: _65  and  _67
REMARK   28  A    between atoms: _67  and  _68
REMARK   29  A    between atoms: _67  and  _70
REMARK   30  A    between atoms: _70  and  _71
REMARK   31  A    between atoms: _74  and  _76
REMARK   32  A    between atoms: _76  and  _77
REMARK   33  A    between atoms: _76  and  _79
REMARK   34  A    between atoms: _79  and  _80
REMARK   35  A    between atoms: _83  and  _85
REMARK   36  A    between atoms: _85  and  _86
REMARK   37  A    between atoms: _85  and  _88
REMARK   38  A    between atoms: _88  and  _89
REMARK   39  A    between atoms: _92  and  _94
REMARK   40  A    between atoms: _94  and  _95
REMARK   41  A    between atoms: _94  and  _97
REMARK   42  A    between atoms: _100  and  _102
REMARK   43  A    between atoms: _102  and  _103
REMARK   44  A    between atoms: _102  and  _105
REMARK   45  A    between atoms: _105  and  _106
REMARK   46  A    between atoms: _106  and  _107
REMARK   47  A    between atoms: _109  and  _111
REMARK   48  A    between atoms: _111  and  _112
REMARK   49  A    between atoms: _111  and  _114
REMARK   50  A    between atoms: _114  and  _115
REMARK   51  A    between atoms: _118  and  _120
REMARK   52  A    between atoms: _120  and  _121
REMARK   53  A    between atoms: _123  and  _125
REMARK   54  A    between atoms: _125  and  _126
REMARK   55  A    between atoms: _128  and  _130
REMARK   56  A    between atoms: _130  and  _131
REMARK   57  A    between atoms: _130  and  _133
REMARK   58  A    between atoms: _133  and  _134
REMARK   59  A    between atoms: _137  and  _139
REMARK   60  A    between atoms: _139  and  _140
REMARK   61  A    between atoms: _142  and  _144
REMARK   62  A    between atoms: _144  and  _145
REMARK   63  A    between atoms: _147  and  _149
REMARK   64  A    between atoms: _149  and  _150
REMARK   65  A    between atoms: _149  and  _152
REMARK   66  A    between atoms: _152  and  _153
REMARK   67  A    between atoms: _159  and  _161
REMARK   68  A    between atoms: _161  and  _162
REMARK   69  A    between atoms: _161  and  _164
REMARK   70  A    between atoms: _164  and  _165
REMARK   71  A    between atoms: _168  and  _170
REMARK   72  A    between atoms: _170  and  _171
REMARK   73  A    between atoms: _170  and  _173
REMARK   74  A    between atoms: _173  and  _174
REMARK   75  A    between atoms: _177  and  _179
REMARK   76  A    between atoms: _179  and  _180
REMARK   77  A    between atoms: _179  and  _182
REMARK   78  A    between atoms: _182  and  _183
REMARK   79  A    between atoms: _187  and  _188
REMARK   80  A    between atoms: _193  and  _195
REMARK   81  A    between atoms: _195  and  _196
REMARK   82  A    between atoms: _195  and  _198
REMARK   83  A    between atoms: _201  and  _203
REMARK   84  A    between atoms: _203  and  _204
REMARK   85  A    between atoms: _203  and  _206
REMARK   86  A    between atoms: _206  and  _207
REMARK   87  A    between atoms: _212  and  _214
REMARK   88  A    between atoms: _214  and  _215
REMARK   89  A    between atoms: _214  and  _217
REMARK   90  A    between atoms: _217  and  _218
REMARK   91  A    between atoms: _221  and  _223
REMARK   92  A    between atoms: _223  and  _224
REMARK   93  A    between atoms: _226  and  _228
REMARK   94  A    between atoms: _228  and  _229
REMARK   95  A    between atoms: _228  and  _231
REMARK   96  A    between atoms: _231  and  _232
REMARK   97  A    between atoms: _232  and  _233
REMARK   98  A    between atoms: _233  and  _234
REMARK   99  A    between atoms: _243  and  _245
REMARK  100  A    between atoms: _245  and  _246
REMARK  101  A    between atoms: _245  and  _248
REMARK  102  A    between atoms: _248  and  _249
REMARK  103  A    between atoms: _254  and  _256
REMARK  104  A    between atoms: _256  and  _257
REMARK  105  A    between atoms: _256  and  _259
REMARK  106  A    between atoms: _259  and  _260
REMARK  107  A    between atoms: _260  and  _261
REMARK  108  A    between atoms: _261  and  _262
REMARK  109  A    between atoms: _271  and  _273
REMARK  110  A    between atoms: _273  and  _274
REMARK  111  A    between atoms: _273  and  _276
REMARK  112  A    between atoms: _276  and  _277
REMARK  113  A    between atoms: _280  and  _282
REMARK  114  A    between atoms: _282  and  _283
REMARK  115  A    between atoms: _282  and  _285
REMARK  116  A    between atoms: _285  and  _286
REMARK  117  A    between atoms: _289  and  _291
REMARK  118  A    between atoms: _291  and  _292
REMARK  119  A    between atoms: _291  and  _294
REMARK  120  A    between atoms: _294  and  _295
REMARK  121  A    between atoms: _298  and  _300
REMARK  122  A    between atoms: _300  and  _301
REMARK  123  A    between atoms: _300  and  _303
REMARK  124  A    between atoms: _303  and  _304
REMARK  125  A    between atoms: _307  and  _309
REMARK  126  A    between atoms: _309  and  _310
REMARK  127  A    between atoms: _309  and  _312
REMARK  128  A    between atoms: _312  and  _313
REMARK  129  A    between atoms: _316  and  _318
REMARK  130  A    between atoms: _318  and  _319
REMARK  131  A    between atoms: _321  and  _323
REMARK  132  A    between atoms: _323  and  _324
REMARK  133  A    between atoms: _327  and  _329
REMARK  134  A    between atoms: _329  and  _330
REMARK  135  A    between atoms: _329  and  _332
REMARK  136  A    between atoms: _332  and  _333
REMARK  137  A    between atoms: _336  and  _338
REMARK  138  A    between atoms: _338  and  _339
REMARK  139  A    between atoms: _338  and  _341
REMARK  140  A    between atoms: _341  and  _342
REMARK  141  A    between atoms: _345  and  _347
REMARK  142  A    between atoms: _347  and  _348
REMARK  143  A    between atoms: _347  and  _350
REMARK  144  A    between atoms: _350  and  _351
REMARK  145  A    between atoms: _354  and  _356
REMARK  146  A    between atoms: _356  and  _357
REMARK  147  A    between atoms: _356  and  _359
REMARK  148  A    between atoms: _362  and  _364
REMARK  149  A    between atoms: _364  and  _365
REMARK  150  A    between atoms: _364  and  _367
REMARK  151  A    between atoms: _367  and  _368
REMARK  152  A    between atoms: _368  and  _369
REMARK  153  A    between atoms: _369  and  _370
REMARK  154  A    between atoms: _370  and  _371
REMARK  155  A    between atoms: _375  and  _377
REMARK  156  A    between atoms: _377  and  _378
REMARK  157  A    between atoms: _377  and  _380
REMARK  158  A    between atoms: _380  and  _381
REMARK  159  A    between atoms: _381  and  _382
REMARK  160  A    between atoms: _384  and  _386
REMARK  161  A    between atoms: _386  and  _387
REMARK  162  A    between atoms: _386  and  _389
REMARK  163  A    between atoms: _389  and  _390
REMARK  164  A    between atoms: _393  and  _395
REMARK  165  A    between atoms: _395  and  _396
REMARK  166  A    between atoms: _398  and  _400
REMARK  167  A    between atoms: _400  and  _401
REMARK  168  A    between atoms: _403  and  _405
REMARK  169  A    between atoms: _405  and  _406
REMARK  170  A    between atoms: _405  and  _408
REMARK  171  A    between atoms: _408  and  _409
REMARK  172  A    between atoms: _412  and  _414
REMARK  173  A    between atoms: _414  and  _415
REMARK  174  A    between atoms: _417  and  _419
REMARK  175  A    between atoms: _419  and  _420
REMARK  176  A    between atoms: _422  and  _424
REMARK  177  A    between atoms: _424  and  _425
REMARK  178  A    between atoms: _424  and  _427
REMARK  179  A    between atoms: _427  and  _428
REMARK  180  A    between atoms: _431  and  _433
REMARK  181  A    between atoms: _433  and  _434
REMARK  182  A    between atoms: _433  and  _436
REMARK  183  A    between atoms: _439  and  _441
REMARK  184  A    between atoms: _441  and  _442
REMARK  185  A    between atoms: _441  and  _444
REMARK  186  A    between atoms: _444  and  _445
REMARK  187  A    between atoms: _449  and  _450
REMARK  188  A    between atoms: _455  and  _457
REMARK  189  A    between atoms: _457  and  _458
REMARK  190  A    between atoms: _457  and  _460
REMARK  191  A    between atoms: _460  and  _461
REMARK  192  A    between atoms: _465  and  _466
REMARK  193  A    between atoms: _471  and  _473
REMARK  194  A    between atoms: _473  and  _474
REMARK  195  A    between atoms: _473  and  _476
REMARK  196  A    between atoms: _479  and  _481
REMARK  197  A    between atoms: _481  and  _482
REMARK  198  A    between atoms: _481  and  _484
REMARK  199  A    between atoms: _484  and  _485
REMARK  200  A    between atoms: _490  and  _492
REMARK  201  A    between atoms: _492  and  _493
REMARK  202  A    between atoms: _492  and  _495
REMARK  203  A    between atoms: _495  and  _496
REMARK  204  A    between atoms: _499  and  _501
REMARK  205  A    between atoms: _501  and  _502
REMARK  206  A    between atoms: _501  and  _504
REMARK  207  A    between atoms: _504  and  _505
REMARK  208  A    between atoms: _508  and  _510
REMARK  209  A    between atoms: _510  and  _511
REMARK  210  A    between atoms: _513  and  _515
REMARK  211  A    between atoms: _515  and  _516
REMARK  212  A    between atoms: _515  and  _518
REMARK  213  A    between atoms: _518  and  _519
REMARK  214  A    between atoms: _519  and  _520
REMARK  215  A    between atoms: _520  and  _521
REMARK  216  A    between atoms: _530  and  _532
REMARK  217  A    between atoms: _532  and  _533
REMARK  218  A    between atoms: _532  and  _535
REMARK  219  A    between atoms: _535  and  _536
REMARK                            x       y       z     vdW  Elec       q    Type
REMARK                         _______ _______ _______ _____ _____    ______ ____
ROOT
ATOM      1  CA  ILE A   1      -6.249   6.768  20.042  0.00  0.00    +0.133 C 
ENDROOT
BRANCH   1   2
ATOM      2  N   ILE A   1      -5.252   7.660  20.621  0.00  0.00    -0.239 NA
ATOM      3  H   ILE A   1      -5.210   8.658  20.332  0.00  0.00    +0.142 HD
ENDBRANCH   1   2
BRANCH   1   4
ATOM      4  CB  ILE A   1      -7.687   7.062  20.502  0.00  0.00    +0.023 C 
ATOM      5  CG2 ILE A   1      -7.800   6.896  22.008  0.00  0.00    +0.002 C 
BRANCH   4   6
ATOM      6  CG1 ILE A   1      -8.186   8.428  20.026  0.00  0.00    +0.002 C 
ATOM      7  CD1 ILE A   1      -9.685   8.613  20.087  0.00  0.00    +0.000 C 
ENDBRANCH   4   6
ENDBRANCH   1   4
BRANCH   1   8
ATOM      8  C   ILE A   1      -6.198   6.885  18.521  0.00  0.00    +0.224 C 
ATOM      9  O   ILE A   1      -5.811   7.925  17.998  0.00  0.00    -0.287 OA
ENDBRANCH   1   8
TORSDOF 4
REMARK  Name = ../refined-set-2016/1zpa/1zpa_pocket.pdb
REMARK  219 active torsions:
REMARK  status: ('A' for Active; 'I' for Inactive)
REMARK    1  A    between atoms: _1  and  _3
REMARK    2  A    between atoms: _3  and  _4
REMARK    3  A    between atoms: _3  and  _6
REMARK    4  A    between atoms: _6  and  _7
REMARK    5  A    between atoms: _7  and  _8
REMARK    6  A    between atoms: _8  and  _9
REMARK    7  A    between atoms: _18  and  _20
REMARK    8  A    between atoms: _20  and  _21
REMARK    9  A    between atoms: _20  and  _23
REMARK   10  A    between atoms: _23  and  _24
REMARK   11  A    between atoms: _27  and  _29
REMARK   12  A    between atoms: _29  and  _30
REMARK   13  A    between atoms: _29  and  _32
REMARK   14  A    between atoms: _32  and  _33
REMARK   15  A    between atoms: _36  and  _38
REMARK   16  A    between atoms: _38  and  _39
REMARK   17  A    between atoms: _38  and  _41
REMARK   18  A    between atoms: _41  and  _42
REMARK   19  A    between atoms: _45  and  _47
REMARK   20  A    between atoms: _47  and  _48
REMARK   21  A    between atoms: _47  and  _50
REMARK   22  A    between atoms: _50  and  _51
REMARK   23  A    between atoms: _54  and  _56
REMARK   24  A    between atoms: _56  and  _57
REMARK   25  A    between atoms: _59  and  _61
REMARK   26  A    between atoms: _61  and  _62
REMARK   27  A    between atoms: _65  and  _67
REMARK   28  A    between atoms: _67  and  _68
REMARK   29  A    between atoms: _67  and  _70
REMARK   30  A    between atoms: _70  and  _71
REMARK   31  A    between atoms: _74  and  _76
REMARK   32  A    between atoms: _76  and  _77
REMARK   33  A    between atoms: _76  and  _79
REMARK   34  A    between atoms: _79  and  _80
REMARK   35  A    between atoms: _83  and  _85
REMARK   36  A    between atoms: _85  and  _86
REMARK   37  A    between atoms: _85  and  _88
REMARK   38  A    between atoms: _88  and  _89
REMARK   39  A    between atoms: _92  and  _94
REMARK   40  A    between atoms: _94  and  _95
REMARK   41  A    between atoms: _94  and  _97
REMARK   42  A    between atoms: _100  and  _102
REMARK   43  A    between atoms: _102  and  _103
REMARK   44  A    between atoms: _102  and  _105
REMARK   45  A    between atoms: _105  and  _106
REMARK   46  A    between atoms: _106  and  _107
REMARK   47  A    between atoms: _109  and  _111
REMARK   48  A    between atoms: _111  and  _112
REMARK   49  A    between atoms: _111  and  _114
REMARK   50  A    between atoms: _114  and  _115
REMARK   51  A    between atoms: _118  and  _120
REMARK   52  A    between atoms: _120  and  _121
REMARK   53  A    between atoms: _123  and  _125
REMARK   54  A    between atoms: _125  and  _126
REMARK   55  A    between atoms: _128  and  _130
REMARK   56  A    between atoms: _130  and  _131
REMARK   57  A    between atoms: _130  and  _133
REMARK   58  A    between atoms: _133  and  _134
REMARK   59  A    between atoms: _137  and  _139
REMARK   60  A    between atoms: _139  and  _140
REMARK   61  A    between atoms: _142  and  _144
REMARK   62  A    between atoms: _144  and  _145
REMARK   63  A    between atoms: _147  and  _149
REMARK   64  A    between atoms: _149  and  _150
REMARK   65  A    between atoms: _149  and  _152
REMARK   66  A    between atoms: _152  and  _153
REMARK   67  A    between atoms: _159  and  _161
REMARK   68  A    between atoms: _161  and  _162
REMARK   69  A    between atoms: _161  and  _164
REMARK   70  A    between atoms: _164  and  _165
REMARK   71  A    between atoms: _168  and  _170
REMARK   72  A    between atoms: _170  and  _171
REMARK   73  A    between atoms: _170  and  _173
REMARK   74  A    between atoms: _173  and  _174
REMARK   75  A    between atoms: _177  and  _179
REMARK   76  A    between atoms: _179  and  _180
REMARK   77  A    between atoms: _179  and  _182
REMARK   78  A    between atoms: _182  and  _183
REMARK   79  A    between atoms: _187  and  _188
REMARK   80  A    between atoms: _193  and  _195
REMARK   81  A    between atoms: _195  and  _196
REMARK   82  A    between atoms: _195  and  _198
REMARK   83  A    between atoms: _201  and  _203
REMARK   84  A    between atoms: _203  and  _204
REMARK   85  A    between atoms: _203  and  _206
REMARK   86  A    between atoms: _206  and  _207
REMARK   87  A    between atoms: _212  and  _214
REMARK   88  A    between atoms: _214  and  _215
REMARK   89  A    between atoms: _214  and  _217
REMARK   90  A    between atoms: _217  and  _218
REMARK   91  A    between atoms: _221  and  _223
REMARK   92  A    between atoms: _223  and  _224
REMARK   93  A    between atoms: _226  and  _228
REMARK   94  A    between atoms: _228  and  _229
REMARK   95  A    between atoms: _228  and  _231
REMARK   96  A    between atoms: _231  and  _232
REMARK   97  A    between atoms: _232  and  _233
REMARK   98  A    between atoms: _233  and  _234
REMARK   99  A    between atoms: _243  and  _245
REMARK  100  A    between atoms: _245  and  _246
REMARK  101  A    between atoms: _245  and  _248
REMARK  102  A    between atoms: _248  and  _249
REMARK  103  A    between atoms: _254  and  _256
REMARK  104  A    between atoms: _256  and  _257
REMARK  105  A    between atoms: _256  and  _259
REMARK  106  A    between atoms: _259  and  _260
REMARK  107  A    between atoms: _260  and  _261
REMARK  108  A    between atoms: _261  and  _262
REMARK  109  A    between atoms: _271  and  _273
REMARK  110  A    between atoms: _273  and  _274
REMARK  111  A    between atoms: _273  and  _276
REMARK  112  A    between atoms: _276  and  _277
REMARK  113  A    between atoms: _280  and  _282
REMARK  114  A    between atoms: _282  and  _283
REMARK  115  A    between atoms: _282  and  _285
REMARK  116  A    between atoms: _285  and  _286
REMARK  117  A    between atoms: _289  and  _291
REMARK  118  A    between atoms: _291  and  _292
REMARK  119  A    between atoms: _291  and  _294
REMARK  120  A    between atoms: _294  and  _295
REMARK  121  A    between atoms: _298  and  _300
REMARK  122  A    between atoms: _300  and  _301
REMARK  123  A    between atoms: _300  and  _303
REMARK  124  A    between atoms: _303  and  _304
REMARK  125  A    between atoms: _307  and  _309
REMARK  126  A    between atoms: _309  and  _310
REMARK  127  A    between atoms: _309  and  _312
REMARK  128  A    between atoms: _312  and  _313
REMARK  129  A    between atoms: _316  and  _318
REMARK  130  A    between atoms: _318  and  _319
REMARK  131  A    between atoms: _321  and  _323
REMARK  132  A    between atoms: _323  and  _324
REMARK  133  A    between atoms: _327  and  _329
REMARK  134  A    between atoms: _329  and  _330
REMARK  135  A    between atoms: _329  and  _332
REMARK  136  A    between atoms: _332  and  _333
REMARK  137  A    between atoms: _336  and  _338
REMARK  138  A    between atoms: _338  and  _339
REMARK  139  A    between atoms: _338  and  _341
REMARK  140  A    between atoms: _341  and  _342
REMARK  141  A    between atoms: _345  and  _347
REMARK  142  A    between atoms: _347  and  _348
REMARK  143  A    between atoms: _347  and  _350
REMARK  144  A    between atoms: _350  and  _351
REMARK  145  A    between atoms: _354  and  _356
REMARK  146  A    between atoms: _356  and  _357
REMARK  147  A    between atoms: _356  and  _359
REMARK  148  A    between atoms: _362  and  _364
REMARK  149  A    between atoms: _364  and  _365
REMARK  150  A    between atoms: _364  and  _367
REMARK  151  A    between atoms: _367  and  _368
REMARK  152  A    between atoms: _368  and  _369
REMARK  153  A    between atoms: _369  and  _370
REMARK  154  A    between atoms: _370  and  _371
REMARK  155  A    between atoms: _375  and  _377
REMARK  156  A    between atoms: _377  and  _378
REMARK  157  A    between atoms: _377  and  _380
REMARK  158  A    between atoms: _380  and  _381
REMARK  159  A    between atoms: _381  and  _382
REMARK  160  A    between atoms: _384  and  _386
REMARK  161  A    between atoms: _386  and  _387
REMARK  162  A    between atoms: _386  and  _389
REMARK  163  A    between atoms: _389  and  _390
REMARK  164  A    between atoms: _393  and  _395
REMARK  165  A    between atoms: _395  and  _396
REMARK  166  A    between atoms: _398  and  _400
REMARK  167  A    between atoms: _400  and  _401
REMARK  168  A    between atoms: _403  and  _405
REMARK  169  A    between atoms: _405  and  _406
REMARK  170  A    between atoms: _405  and  _408
REMARK  171  A    between atoms: _408  and  _409
REMARK  172  A    between atoms: _412  and  _414
REMARK  173  A    between atoms: _414  and  _415
REMARK  174  A    between atoms: _417  and  _419
REMARK  175  A    between atoms: _419  and  _420
REMARK  176  A    between atoms: _422  and  _424
REMARK  177  A    between atoms: _424  and  _425
REMARK  178  A    between atoms: _424  and  _427
REMARK  179  A    between atoms: _427  and  _428
REMARK  180  A    between atoms: _431  and  _433
REMARK  181  A    between atoms: _433  and  _434
REMARK  182  A    between atoms: _433  and  _436
REMARK  183  A    between atoms: _439  and  _441
REMARK  184  A    between atoms: _441  and  _442
REMARK  185  A    between atoms: _441  and  _444
REMARK  186  A    between atoms: _444  and  _445
REMARK  187  A    between atoms: _449  and  _450
REMARK  188  A    between atoms: _455  and  _457
REMARK  189  A    between atoms: _457  and  _458
REMARK  190  A    between atoms: _457  and  _460
REMARK  191  A    between atoms: _460  and  _461
REMARK  192  A    between atoms: _465  and  _466
REMARK  193  A    between atoms: _471  and  _473
REMARK  194  A    between atoms: _473  and  _474
REMARK  195  A    between atoms: _473  and  _476
REMARK  196  A    between atoms: _479  and  _481
REMARK  197  A    between atoms: _481  and  _482
REMARK  198  A    between atoms: _481  and  _484
REMARK  199  A    between atoms: _484  and  _485
REMARK  200  A    between atoms: _490  and  _492
REMARK  201  A    between atoms: _492  and  _493
REMARK  202  A    between atoms: _492  and  _495
REMARK  203  A    between atoms: _495  and  _496
REMARK  204  A    between atoms: _499  and  _501
REMARK  205  A    between atoms: _501  and  _502
REMARK  206  A    between atoms: _501  and  _504
REMARK  207  A    between atoms: _504  and  _505
REMARK  208  A    between atoms: _508  and  _510
REMARK  209  A    between atoms: _510  and  _511
REMARK  210  A    between atoms: _513  and  _515
REMARK  211  A    between atoms: _515  and  _516
REMARK  212  A    between atoms: _515  and  _518
REMARK  213  A    between atoms: _518  and  _519
REMARK  214  A    between atoms: _519  and  _520
REMARK  215  A    between atoms: _520  and  _521
REMARK  216  A    between atoms: _530  and  _532
REMARK  217  A    between atoms: _532  and  _533
REMARK  218  A    between atoms: _532  and  _535
REMARK  219  A    between atoms: _535  and  _536
REMARK                            x       y       z     vdW  Elec       q    Type
REMARK                         _______ _______ _______ _____ _____    ______ ____
ROOT
ATOM      1  CA  VAL A   1      -9.610   7.614  14.712  0.00  0.00    +0.133 C 
ENDROOT
BRANCH   1   2
ATOM      2  CB  VAL A   1      -9.944   8.995  15.307  0.00  0.00    +0.023 C 
ATOM      3  CG2 VAL A   1     -10.008   8.981  16.825  0.00  0.00    +0.002 C 
ATOM      4  CG1 VAL A   1      -8.907   9.993  14.800  0.00  0.00    +0.002 C 
ENDBRANCH   1   2
BRANCH   1   5
ATOM      5  N   VAL A   1      -8.257   7.191  15.026  0.00  0.00    -0.239 NA
ATOM      6  H   VAL A   1      -7.440   7.584  14.517  0.00  0.00    +0.142 HD
ENDBRANCH   1   5
BRANCH   1   7
ATOM      7  C   VAL A   1      -9.793   7.740  13.206  0.00  0.00    +0.224 C 
ATOM      8  O   VAL A   1      -8.816   7.840  12.463  0.00  0.00    -0.287 OA
ENDBRANCH   1   7
TORSDOF 3
REMARK  Name = ../refined-set-2016/1zpa/1zpa_pocket.pdb
REMARK  219 active torsions:
REMARK  status: ('A' for Active; 'I' for Inactive)
REMARK    1  A    between atoms: _1  and  _3
REMARK    2  A    between atoms: _3  and  _4
REMARK    3  A    between atoms: _3  and  _6
REMARK    4  A    between atoms: _6  and  _7
REMARK    5  A    between atoms: _7  and  _8
REMARK    6  A    between atoms: _8  and  _9
REMARK    7  A    between atoms: _18  and  _20
REMARK    8  A    between atoms: _20  and  _21
REMARK    9  A    between atoms: _20  and  _23
REMARK   10  A    between atoms: _23  and  _24
REMARK   11  A    between atoms: _27  and  _29
REMARK   12  A    between atoms: _29  and  _30
REMARK   13  A    between atoms: _29  and  _32
REMARK   14  A    between atoms: _32  and  _33
REMARK   15  A    between atoms: _36  and  _38
REMARK   16  A    between atoms: _38  and  _39
REMARK   17  A    between atoms: _38  and  _41
REMARK   18  A    between atoms: _41  and  _42
REMARK   19  A    between atoms: _45  and  _47
REMARK   20  A    between atoms: _47  and  _48
REMARK   21  A    between atoms: _47  and  _50
REMARK   22  A    between atoms: _50  and  _51
REMARK   23  A    between atoms: _54  and  _56
REMARK   24  A    between atoms: _56  and  _57
REMARK   25  A    between atoms: _59  and  _61
REMARK   26  A    between atoms: _61  and  _62
REMARK   27  A    between atoms: _65  and  _67
REMARK   28  A    between atoms: _67  and  _68
REMARK   29  A    between atoms: _67  and  _70
REMARK   30  A    between atoms: _70  and  _71
REMARK   31  A    between atoms: _74  and  _76
REMARK   32  A    between atoms: _76  and  _77
REMARK   33  A    between atoms: _76  and  _79
REMARK   34  A    between atoms: _79  and  _80
REMARK   35  A    between atoms: _83  and  _85
REMARK   36  A    between atoms: _85  and  _86
REMARK   37  A    between atoms: _85  and  _88
REMARK   38  A    between atoms: _88  and  _89
REMARK   39  A    between atoms: _92  and  _94
REMARK   40  A    between atoms: _94  and  _95
REMARK   41  A    between atoms: _94  and  _97
REMARK   42  A    between atoms: _100  and  _102
REMARK   43  A    between atoms: _102  and  _103
REMARK   44  A    between atoms: _102  and  _105
REMARK   45  A    between atoms: _105  and  _106
REMARK   46  A    between atoms: _106  and  _107
REMARK   47  A    between atoms: _109  and  _111
REMARK   48  A    between atoms: _111  and  _112
REMARK   49  A    between atoms: _111  and  _114
REMARK   50  A    between atoms: _114  and  _115
REMARK   51  A    between atoms: _118  and  _120
REMARK   52  A    between atoms: _120  and  _121
REMARK   53  A    between atoms: _123  and  _125
REMARK   54  A    between atoms: _125  and  _126
REMARK   55  A    between atoms: _128  and  _130
REMARK   56  A    between atoms: _130  and  _131
REMARK   57  A    between atoms: _130  and  _133
REMARK   58  A    between atoms: _133  and  _134
REMARK   59  A    between atoms: _137  and  _139
REMARK   60  A    between atoms: _139  and  _140
REMARK   61  A    between atoms: _142  and  _144
REMARK   62  A    between atoms: _144  and  _145
REMARK   63  A    between atoms: _147  and  _149
REMARK   64  A    between atoms: _149  and  _150
REMARK   65  A    between atoms: _149  and  _152
REMARK   66  A    between atoms: _152  and  _153
REMARK   67  A    between atoms: _159  and  _161
REMARK   68  A    between atoms: _161  and  _162
REMARK   69  A    between atoms: _161  and  _164
REMARK   70  A    between atoms: _164  and  _165
REMARK   71  A    between atoms: _168  and  _170
REMARK   72  A    between atoms: _170  and  _171
REMARK   73  A    between atoms: _170  and  _173
REMARK   74  A    between atoms: _173  and  _174
REMARK   75  A    between atoms: _177  and  _179
REMARK   76  A    between atoms: _179  and  _180
REMARK   77  A    between atoms: _179  and  _182
REMARK   78  A    between atoms: _182  and  _183
REMARK   79  A    between atoms: _187  and  _188
REMARK   80  A    between atoms: _193  and  _195
REMARK   81  A    between atoms: _195  and  _196
REMARK   82  A    between atoms: _195  and  _198
REMARK   83  A    between atoms: _201  and  _203
REMARK   84  A    between atoms: _203  and  _204
REMARK   85  A    between atoms: _203  and  _206
REMARK   86  A    between atoms: _206  and  _207
REMARK   87  A    between atoms: _212  and  _214
REMARK   88  A    between atoms: _214  and  _215
REMARK   89  A    between atoms: _214  and  _217
REMARK   90  A    between atoms: _217  and  _218
REMARK   91  A    between atoms: _221  and  _223
REMARK   92  A    between atoms: _223  and  _224
REMARK   93  A    between atoms: _226  and  _228
REMARK   94  A    between atoms: _228  and  _229
REMARK   95  A    between atoms: _228  and  _231
REMARK   96  A    between atoms: _231  and  _232
REMARK   97  A    between atoms: _232  and  _233
REMARK   98  A    between atoms: _233  and  _234
REMARK   99  A    between atoms: _243  and  _245
REMARK  100  A    between atoms: _245  and  _246
REMARK  101  A    between atoms: _245  and  _248
REMARK  102  A    between atoms: _248  and  _249
REMARK  103  A    between atoms: _254  and  _256
REMARK  104  A    between atoms: _256  and  _257
REMARK  105  A    between atoms: _256  and  _259
REMARK  106  A    between atoms: _259  and  _260
REMARK  107  A    between atoms: _260  and  _261
REMARK  108  A    between atoms: _261  and  _262
REMARK  109  A    between atoms: _271  and  _273
REMARK  110  A    between atoms: _273  and  _274
REMARK  111  A    between atoms: _273  and  _276
REMARK  112  A    between atoms: _276  and  _277
REMARK  113  A    between atoms: _280  and  _282
REMARK  114  A    between atoms: _282  and  _283
REMARK  115  A    between atoms: _282  and  _285
REMARK  116  A    between atoms: _285  and  _286
REMARK  117  A    between atoms: _289  and  _291
REMARK  118  A    between atoms: _291  and  _292
REMARK  119  A    between atoms: _291  and  _294
REMARK  120  A    between atoms: _294  and  _295
REMARK  121  A    between atoms: _298  and  _300
REMARK  122  A    between atoms: _300  and  _301
REMARK  123  A    between atoms: _300  and  _303
REMARK  124  A    between atoms: _303  and  _304
REMARK  125  A    between atoms: _307  and  _309
REMARK  126  A    between atoms: _309  and  _310
REMARK  127  A    between atoms: _309  and  _312
REMARK  128  A    between atoms: _312  and  _313
REMARK  129  A    between atoms: _316  and  _318
REMARK  130  A    between atoms: _318  and  _319
REMARK  131  A    between atoms: _321  and  _323
REMARK  132  A    between atoms: _323  and  _324
REMARK  133  A    between atoms: _327  and  _329
REMARK  134  A    between atoms: _329  and  _330
REMARK  135  A    between atoms: _329  and  _332
REMARK  136  A    between atoms: _332  and  _333
REMARK  137  A    between atoms: _336  and  _338
REMARK  138  A    between atoms: _338  and  _339
REMARK  139  A    between atoms: _338  and  _341
REMARK  140  A    between atoms: _341  and  _342
REMARK  141  A    between atoms: _345  and  _347
REMARK  142  A    between atoms: _347  and  _348
REMARK  143  A    between atoms: _347  and  _350
REMARK  144  A    between atoms: _350  and  _351
REMARK  145  A    between atoms: _354  and  _356
REMARK  146  A    between atoms: _356  and  _357
REMARK  147  A    between atoms: _356  and  _359
REMARK  148  A    between atoms: _362  and  _364
REMARK  149  A    between atoms: _364  and  _365
REMARK  150  A    between atoms: _364  and  _367
REMARK  151  A    between atoms: _367  and  _368
REMARK  152  A    between atoms: _368  and  _369
REMARK  153  A    between atoms: _369  and  _370
REMARK  154  A    between atoms: _370  and  _371
REMARK  155  A    between atoms: _375  and  _377
REMARK  156  A    between atoms: _377  and  _378
REMARK  157  A    between atoms: _377  and  _380
REMARK  158  A    between atoms: _380  and  _381
REMARK  159  A    between atoms: _381  and  _382
REMARK  160  A    between atoms: _384  and  _386
REMARK  161  A    between atoms: _386  and  _387
REMARK  162  A    between atoms: _386  and  _389
REMARK  163  A    between atoms: _389  and  _390
REMARK  164  A    between atoms: _393  and  _395
REMARK  165  A    between atoms: _395  and  _396
REMARK  166  A    between atoms: _398  and  _400
REMARK  167  A    between atoms: _400  and  _401
REMARK  168  A    between atoms: _403  and  _405
REMARK  169  A    between atoms: _405  and  _406
REMARK  170  A    between atoms: _405  and  _408
REMARK  171  A    between atoms: _408  and  _409
REMARK  172  A    between atoms: _412  and  _414
REMARK  173  A    between atoms: _414  and  _415
REMARK  174  A    between atoms: _417  and  _419
REMARK  175  A    between atoms: _419  and  _420
REMARK  176  A    between atoms: _422  and  _424
REMARK  177  A    between atoms: _424  and  _425
REMARK  178  A    between atoms: _424  and  _427
REMARK  179  A    between atoms: _427  and  _428
REMARK  180  A    between atoms: _431  and  _433
REMARK  181  A    between atoms: _433  and  _434
REMARK  182  A    between atoms: _433  and  _436
REMARK  183  A    between atoms: _439  and  _441
REMARK  184  A    between atoms: _441  and  _442
REMARK  185  A    between atoms: _441  and  _444
REMARK  186  A    between atoms: _444  and  _445
REMARK  187  A    between atoms: _449  and  _450
REMARK  188  A    between atoms: _455  and  _457
REMARK  189  A    between atoms: _457  and  _458
REMARK  190  A    between atoms: _457  and  _460
REMARK  191  A    between atoms: _460  and  _461
REMARK  192  A    between atoms: _465  and  _466
REMARK  193  A    between atoms: _471  and  _473
REMARK  194  A    between atoms: _473  and  _474
REMARK  195  A    between atoms: _473  and  _476
REMARK  196  A    between atoms: _479  and  _481
REMARK  197  A    between atoms: _481  and  _482
REMARK  198  A    between atoms: _481  and  _484
REMARK  199  A    between atoms: _484  and  _485
REMARK  200  A    between atoms: _490  and  _492
REMARK  201  A    between atoms: _492  and  _493
REMARK  202  A    between atoms: _492  and  _495
REMARK  203  A    between atoms: _495  and  _496
REMARK  204  A    between atoms: _499  and  _501
REMARK  205  A    between atoms: _501  and  _502
REMARK  206  A    between atoms: _501  and  _504
REMARK  207  A    between atoms: _504  and  _505
REMARK  208  A    between atoms: _508  and  _510
REMARK  209  A    between atoms: _510  and  _511
REMARK  210  A    between atoms: _513  and  _515
REMARK  211  A    between atoms: _515  and  _516
REMARK  212  A    between atoms: _515  and  _518
REMARK  213  A    between atoms: _518  and  _519
REMARK  214  A    between atoms: _519  and  _520
REMARK  215  A    between atoms: _520  and  _521
REMARK  216  A    between atoms: _530  and  _532
REMARK  217  A    between atoms: _532  and  _533
REMARK  218  A    between atoms: _532  and  _535
REMARK  219  A    between atoms: _535  and  _536
REMARK                            x       y       z     vdW  Elec       q    Type
REMARK                         _______ _______ _______ _____ _____    ______ ____
ROOT
ATOM      1  CA  LEU A   1     -13.134  12.234  14.033  0.00  0.00    +0.133 C 
ENDROOT
BRANCH   1   2
ATOM      2  N   LEU A   1     -13.963  13.425  13.872  0.00  0.00    -0.239 NA
ATOM      3  H   LEU A   1     -14.016  14.115  14.649  0.00  0.00    +0.142 HD
ENDBRANCH   1   2
BRANCH   1   4
ATOM      4  C   LEU A   1     -13.901  11.177  14.811  0.00  0.00    +0.224 C 
ATOM      5  O   LEU A   1     -14.559  11.440  15.827  0.00  0.00    -0.287 OA
ENDBRANCH   1   4
BRANCH   1   6
ATOM      6  CB  LEU A   1     -11.799  12.583  14.711  0.00  0.00    +0.025 C 
BRANCH   6   7
ATOM      7  CG  LEU A   1     -11.134  13.879  14.230  0.00  0.00    +0.002 C 
ATOM      8  CD2 LEU A   1     -10.060  14.338  15.203  0.00  0.00    +0.000 C 
ATOM      9  CD1 LEU A   1     -10.532  13.735  12.838  0.00  0.00    +0.000 C 
ENDBRANCH   6   7
ENDBRANCH   1   6
TORSDOF 4
REMARK  Name = ../refined-set-2016/1zpa/1zpa_pocket.pdb
REMARK  219 active torsions:
REMARK  status: ('A' for Active; 'I' for Inactive)
REMARK    1  A    between atoms: _1  and  _3
REMARK    2  A    between atoms: _3  and  _4
REMARK    3  A    between atoms: _3  and  _6
REMARK    4  A    between atoms: _6  and  _7
REMARK    5  A    between atoms: _7  and  _8
REMARK    6  A    between atoms: _8  and  _9
REMARK    7  A    between atoms: _18  and  _20
REMARK    8  A    between atoms: _20  and  _21
REMARK    9  A    between atoms: _20  and  _23
REMARK   10  A    between atoms: _23  and  _24
REMARK   11  A    between atoms: _27  and  _29
REMARK   12  A    between atoms: _29  and  _30
REMARK   13  A    between atoms: _29  and  _32
REMARK   14  A    between atoms: _32  and  _33
REMARK   15  A    between atoms: _36  and  _38
REMARK   16  A    between atoms: _38  and  _39
REMARK   17  A    between atoms: _38  and  _41
REMARK   18  A    between atoms: _41  and  _42
REMARK   19  A    between atoms: _45  and  _47
REMARK   20  A    between atoms: _47  and  _48
REMARK   21  A    between atoms: _47  and  _50
REMARK   22  A    between atoms: _50  and  _51
REMARK   23  A    between atoms: _54  and  _56
REMARK   24  A    between atoms: _56  and  _57
REMARK   25  A    between atoms: _59  and  _61
REMARK   26  A    between atoms: _61  and  _62
REMARK   27  A    between atoms: _65  and  _67
REMARK   28  A    between atoms: _67  and  _68
REMARK   29  A    between atoms: _67  and  _70
REMARK   30  A    between atoms: _70  and  _71
REMARK   31  A    between atoms: _74  and  _76
REMARK   32  A    between atoms: _76  and  _77
REMARK   33  A    between atoms: _76  and  _79
REMARK   34  A    between atoms: _79  and  _80
REMARK   35  A    between atoms: _83  and  _85
REMARK   36  A    between atoms: _85  and  _86
REMARK   37  A    between atoms: _85  and  _88
REMARK   38  A    between atoms: _88  and  _89
REMARK   39  A    between atoms: _92  and  _94
REMARK   40  A    between atoms: _94  and  _95
REMARK   41  A    between atoms: _94  and  _97
REMARK   42  A    between atoms: _100  and  _102
REMARK   43  A    between atoms: _102  and  _103
REMARK   44  A    between atoms: _102  and  _105
REMARK   45  A    between atoms: _105  and  _106
REMARK   46  A    between atoms: _106  and  _107
REMARK   47  A    between atoms: _109  and  _111
REMARK   48  A    between atoms: _111  and  _112
REMARK   49  A    between atoms: _111  and  _114
REMARK   50  A    between atoms: _114  and  _115
REMARK   51  A    between atoms: _118  and  _120
REMARK   52  A    between atoms: _120  and  _121
REMARK   53  A    between atoms: _123  and  _125
REMARK   54  A    between atoms: _125  and  _126
REMARK   55  A    between atoms: _128  and  _130
REMARK   56  A    between atoms: _130  and  _131
REMARK   57  A    between atoms: _130  and  _133
REMARK   58  A    between atoms: _133  and  _134
REMARK   59  A    between atoms: _137  and  _139
REMARK   60  A    between atoms: _139  and  _140
REMARK   61  A    between atoms: _142  and  _144
REMARK   62  A    between atoms: _144  and  _145
REMARK   63  A    between atoms: _147  and  _149
REMARK   64  A    between atoms: _149  and  _150
REMARK   65  A    between atoms: _149  and  _152
REMARK   66  A    between atoms: _152  and  _153
REMARK   67  A    between atoms: _159  and  _161
REMARK   68  A    between atoms: _161  and  _162
REMARK   69  A    between atoms: _161  and  _164
REMARK   70  A    between atoms: _164  and  _165
REMARK   71  A    between atoms: _168  and  _170
REMARK   72  A    between atoms: _170  and  _171
REMARK   73  A    between atoms: _170  and  _173
REMARK   74  A    between atoms: _173  and  _174
REMARK   75  A    between atoms: _177  and  _179
REMARK   76  A    between atoms: _179  and  _180
REMARK   77  A    between atoms: _179  and  _182
REMARK   78  A    between atoms: _182  and  _183
REMARK   79  A    between atoms: _187  and  _188
REMARK   80  A    between atoms: _193  and  _195
REMARK   81  A    between atoms: _195  and  _196
REMARK   82  A    between atoms: _195  and  _198
REMARK   83  A    between atoms: _201  and  _203
REMARK   84  A    between atoms: _203  and  _204
REMARK   85  A    between atoms: _203  and  _206
REMARK   86  A    between atoms: _206  and  _207
REMARK   87  A    between atoms: _212  and  _214
REMARK   88  A    between atoms: _214  and  _215
REMARK   89  A    between atoms: _214  and  _217
REMARK   90  A    between atoms: _217  and  _218
REMARK   91  A    between atoms: _221  and  _223
REMARK   92  A    between atoms: _223  and  _224
REMARK   93  A    between atoms: _226  and  _228
REMARK   94  A    between atoms: _228  and  _229
REMARK   95  A    between atoms: _228  and  _231
REMARK   96  A    between atoms: _231  and  _232
REMARK   97  A    between atoms: _232  and  _233
REMARK   98  A    between atoms: _233  and  _234
REMARK   99  A    between atoms: _243  and  _245
REMARK  100  A    between atoms: _245  and  _246
REMARK  101  A    between atoms: _245  and  _248
REMARK  102  A    between atoms: _248  and  _249
REMARK  103  A    between atoms: _254  and  _256
REMARK  104  A    between atoms: _256  and  _257
REMARK  105  A    between atoms: _256  and  _259
REMARK  106  A    between atoms: _259  and  _260
REMARK  107  A    between atoms: _260  and  _261
REMARK  108  A    between atoms: _261  and  _262
REMARK  109  A    between atoms: _271  and  _273
REMARK  110  A    between atoms: _273  and  _274
REMARK  111  A    between atoms: _273  and  _276
REMARK  112  A    between atoms: _276  and  _277
REMARK  113  A    between atoms: _280  and  _282
REMARK  114  A    between atoms: _282  and  _283
REMARK  115  A    between atoms: _282  and  _285
REMARK  116  A    between atoms: _285  and  _286
REMARK  117  A    between atoms: _289  and  _291
REMARK  118  A    between atoms: _291  and  _292
REMARK  119  A    between atoms: _291  and  _294
REMARK  120  A    between atoms: _294  and  _295
REMARK  121  A    between atoms: _298  and  _300
REMARK  122  A    between atoms: _300  and  _301
REMARK  123  A    between atoms: _300  and  _303
REMARK  124  A    between atoms: _303  and  _304
REMARK  125  A    between atoms: _307  and  _309
REMARK  126  A    between atoms: _309  and  _310
REMARK  127  A    between atoms: _309  and  _312
REMARK  128  A    between atoms: _312  and  _313
REMARK  129  A    between atoms: _316  and  _318
REMARK  130  A    between atoms: _318  and  _319
REMARK  131  A    between atoms: _321  and  _323
REMARK  132  A    between atoms: _323  and  _324
REMARK  133  A    between atoms: _327  and  _329
REMARK  134  A    between atoms: _329  and  _330
REMARK  135  A    between atoms: _329  and  _332
REMARK  136  A    between atoms: _332  and  _333
REMARK  137  A    between atoms: _336  and  _338
REMARK  138  A    between atoms: _338  and  _339
REMARK  139  A    between atoms: _338  and  _341
REMARK  140  A    between atoms: _341  and  _342
REMARK  141  A    between atoms: _345  and  _347
REMARK  142  A    between atoms: _347  and  _348
REMARK  143  A    between atoms: _347  and  _350
REMARK  144  A    between atoms: _350  and  _351
REMARK  145  A    between atoms: _354  and  _356
REMARK  146  A    between atoms: _356  and  _357
REMARK  147  A    between atoms: _356  and  _359
REMARK  148  A    between atoms: _362  and  _364
REMARK  149  A    between atoms: _364  and  _365
REMARK  150  A    between atoms: _364  and  _367
REMARK  151  A    between atoms: _367  and  _368
REMARK  152  A    between atoms: _368  and  _369
REMARK  153  A    between atoms: _369  and  _370
REMARK  154  A    between atoms: _370  and  _371
REMARK  155  A    between atoms: _375  and  _377
REMARK  156  A    between atoms: _377  and  _378
REMARK  157  A    between atoms: _377  and  _380
REMARK  158  A    between atoms: _380  and  _381
REMARK  159  A    between atoms: _381  and  _382
REMARK  160  A    between atoms: _384  and  _386
REMARK  161  A    between atoms: _386  and  _387
REMARK  162  A    between atoms: _386  and  _389
REMARK  163  A    between atoms: _389  and  _390
REMARK  164  A    between atoms: _393  and  _395
REMARK  165  A    between atoms: _395  and  _396
REMARK  166  A    between atoms: _398  and  _400
REMARK  167  A    between atoms: _400  and  _401
REMARK  168  A    between atoms: _403  and  _405
REMARK  169  A    between atoms: _405  and  _406
REMARK  170  A    between atoms: _405  and  _408
REMARK  171  A    between atoms: _408  and  _409
REMARK  172  A    between atoms: _412  and  _414
REMARK  173  A    between atoms: _414  and  _415
REMARK  174  A    between atoms: _417  and  _419
REMARK  175  A    between atoms: _419  and  _420
REMARK  176  A    between atoms: _422  and  _424
REMARK  177  A    between atoms: _424  and  _425
REMARK  178  A    between atoms: _424  and  _427
REMARK  179  A    between atoms: _427  and  _428
REMARK  180  A    between atoms: _431  and  _433
REMARK  181  A    between atoms: _433  and  _434
REMARK  182  A    between atoms: _433  and  _436
REMARK  183  A    between atoms: _439  and  _441
REMARK  184  A    between atoms: _441  and  _442
REMARK  185  A    between atoms: _441  and  _444
REMARK  186  A    between atoms: _444  and  _445
REMARK  187  A    between atoms: _449  and  _450
REMARK  188  A    between atoms: _455  and  _457
REMARK  189  A    between atoms: _457  and  _458
REMARK  190  A    between atoms: _457  and  _460
REMARK  191  A    between atoms: _460  and  _461
REMARK  192  A    between atoms: _465  and  _466
REMARK  193  A    between atoms: _471  and  _473
REMARK  194  A    between atoms: _473  and  _474
REMARK  195  A    between atoms: _473  and  _476
REMARK  196  A    between atoms: _479  and  _481
REMARK  197  A    between atoms: _481  and  _482
REMARK  198  A    between atoms: _481  and  _484
REMARK  199  A    between atoms: _484  and  _485
REMARK  200  A    between atoms: _490  and  _492
REMARK  201  A    between atoms: _492  and  _493
REMARK  202  A    between atoms: _492  and  _495
REMARK  203  A    between atoms: _495  and  _496
REMARK  204  A    between atoms: _499  and  _501
REMARK  205  A    between atoms: _501  and  _502
REMARK  206  A    between atoms: _501  and  _504
REMARK  207  A    between atoms: _504  and  _505
REMARK  208  A    between atoms: _508  and  _510
REMARK  209  A    between atoms: _510  and  _511
REMARK  210  A    between atoms: _513  and  _515
REMARK  211  A    between atoms: _515  and  _516
REMARK  212  A    between atoms: _515  and  _518
REMARK  213  A    between atoms: _518  and  _519
REMARK  214  A    between atoms: _519  and  _520
REMARK  215  A    between atoms: _520  and  _521
REMARK  216  A    between atoms: _530  and  _532
REMARK  217  A    between atoms: _532  and  _533
REMARK  218  A    between atoms: _532  and  _535
REMARK  219  A    between atoms: _535  and  _536
REMARK                            x       y       z     vdW  Elec       q    Type
REMARK                         _______ _______ _______ _____ _____    ______ ____
ROOT
ATOM      1  CA  ILE A   6     -16.485  15.798  22.249  0.00  0.00    +0.149 C 
ENDROOT
BRANCH   1   2
ATOM      2  C   ILE A   6     -16.640  16.765  21.073  0.00  0.00    +0.241 C 
ATOM      3  N   ILE A   7     -17.208  17.947  21.306  0.00  0.00    -0.297 N 
ATOM      4  H   ILE A   7     -17.610  18.119  22.250  0.00  0.00    +0.150 HD
ATOM      5  O   ILE A   6     -16.249  16.439  19.959  0.00  0.00    -0.273 OA
BRANCH   3   6
ATOM      6  CA  ILE A   7     -17.300  19.017  20.314  0.00  0.00    +0.149 C 
BRANCH   6   7
ATOM      7  C   ILE A   7     -16.116  19.956  20.518  0.00  0.00    +0.241 C 
ATOM      8  O   ILE A   7     -16.025  20.581  21.583  0.00  0.00    -0.273 OA
ATOM      9  N   GLY A   8     -15.222  20.033  19.552  0.00  0.00    -0.295 N 
ATOM     10  H   GLY A   8     -15.412  19.547  18.652  0.00  0.00    +0.150 HD
BRANCH   9  11
ATOM     11  CA  GLY A   8     -13.976  20.775  19.701  0.00  0.00    +0.176 C 
BRANCH  11  12
ATOM     12  C   GLY A   8     -14.040  22.126  19.016  0.00  0.00    +0.243 C 
ATOM     13  N   ARG A   9     -12.999  22.941  19.135  0.00  0.00    -0.297 N 
ATOM     14  H   ARG A   9     -12.158  22.574  19.624  0.00  0.00    +0.150 HD
ATOM     15  O   GLY A   8     -15.031  22.444  18.375  0.00  0.00    -0.273 OA
BRANCH  13  16
ATOM     16  CA  ARG A   9     -12.940  24.301  18.638  0.00  0.00    +0.149 C 
BRANCH  16  17
ATOM     17  C   ARG A   9     -13.257  24.430  17.143  0.00  0.00    +0.241 C 
ATOM     18  O   ARG A   9     -13.911  25.409  16.756  0.00  0.00    -0.273 OA
ATOM     19  N   ASN A  10     -12.828  23.487  16.317  0.00  0.00    -0.298 N 
ATOM     20  H   ASN A  10     -12.225  22.722  16.681  0.00  0.00    +0.150 HD
BRANCH  19  21
ATOM     21  CA  ASN A  10     -13.194  23.508  14.892  0.00  0.00    +0.146 C 
BRANCH  21  22
ATOM     22  C   ASN A  10     -14.694  23.692  14.704  0.00  0.00    +0.227 C 
ATOM     23  O   ASN A  10     -15.120  24.372  13.772  0.00  0.00    -0.286 OA
ENDBRANCH  21  22
BRANCH  21  24
ATOM     24  CB  ASN A  10     -12.741  22.242  14.190  0.00  0.00    +0.112 C 
BRANCH  24  25
ATOM     25  CG  ASN A  10     -13.496  20.986  14.560  0.00  0.00    +0.222 C 
ATOM     26  OD1 ASN A  10     -13.703  20.671  15.726  0.00  0.00    -0.275 OA
ATOM     27  ND2 ASN A  10     -13.912  20.215  13.564  0.00  0.00    -0.329 N 
ATOM     28 HD21 ASN A  10     -14.421  19.331  13.768  0.00  0.00    +0.145 HD
ATOM     29 HD22 ASN A  10     -13.730  20.494  12.579  0.00  0.00    +0.145 HD
ENDBRANCH  24  25
ENDBRANCH  21  24
ENDBRANCH  19  21
ENDBRANCH  16  17
BRANCH  16  30
ATOM     30  CB  ARG A   9     -11.535  24.879  18.927  0.00  0.00    +0.033 C 
BRANCH  30  31
ATOM     31  CG  ARG A   9     -11.306  25.076  20.432  0.00  0.00    +0.045 C 
BRANCH  31  32
ATOM     32  CD  ARG A   9     -10.034  25.892  20.699  0.00  0.00    +0.174 C 
BRANCH  32  33
ATOM     33  NE  ARG A   9      -8.868  25.237  20.117  0.00  0.00    -0.265 N 
ATOM     34  HE  ARG A   9      -8.459  24.430  20.630  0.00  0.00    +0.259 HD
ATOM     35  CZ  ARG A   9      -8.291  25.602  18.972  0.00  0.00    +0.342 C 
ATOM     36  NH2 ARG A   9      -7.240  24.921  18.542  0.00  0.00    -0.292 N 
ATOM     37 HH21 ARG A   9      -6.879  24.118  19.095  0.00  0.00    +0.255 HD
ATOM     38 HH22 ARG A   9      -6.775  25.190  17.651  0.00  0.00    +0.255 HD
ATOM     39  NH1 ARG A   9      -8.740  26.628  18.265  0.00  0.00    -0.292 N 
ATOM     40 HH11 ARG A   9      -9.562  27.170  18.600  0.00  0.00    +0.255 HD
ATOM     41 HH12 ARG A   9      -8.271  26.891  17.375  0.00  0.00    +0.255 HD
ENDBRANCH  32  33
ENDBRANCH  31  32
ENDBRANCH  30  31
ENDBRANCH  16  30
ENDBRANCH  13  16
ENDBRANCH  11  12
ENDBRANCH   9  11
ENDBRANCH   6   7
BRANCH   6  42
ATOM     42  CB  ILE A   7     -18.617  19.799  20.442  0.00  0.00    +0.027 C 
ATOM     43  CG2 ILE A   7     -18.685  20.916  19.422  0.00  0.00    +0.002 C 
BRANCH  42  44
ATOM     44  CG1 ILE A   7     -19.850  18.890  20.370  0.00  0.00    +0.002 C 
ATOM     45  CD1 ILE A   7     -19.816  17.974  19.161  0.00  0.00    +0.000 C 
ENDBRANCH  42  44
ENDBRANCH   6  42
ENDBRANCH   3   6
ENDBRANCH   1   2
BRANCH   1  48
ATOM     46  C   ASN A   5     -17.989  14.014  22.914  0.00  0.00    +0.241 C 
ATOM     47  O   ASN A   5     -18.374  14.638  23.901  0.00  0.00    -0.273 OA
ATOM     48  N   ILE A   6     -17.148  14.519  22.033  0.00  0.00    -0.297 N 
ATOM     49  H   ILE A   6     -16.953  13.989  21.160  0.00  0.00    +0.150 HD
BRANCH  46  50
ATOM     50  CA  ASN A   5     -18.519  12.594  22.706  0.00  0.00    +0.158 C 
BRANCH  50  52
ATOM     51  C   VAL A   4     -17.104  11.510  24.309  0.00  0.00    +0.241 C 
ATOM     52  N   ASN A   5     -18.335  11.848  23.957  0.00  0.00    -0.297 N 
ATOM     53  H   ASN A   5     -19.150  11.592  24.551  0.00  0.00    +0.150 HD
ATOM     54  O   VAL A   4     -16.071  11.740  23.669  0.00  0.00    -0.273 OA
BRANCH  51  55
ATOM     55  CA  VAL A   4     -16.934  10.771  25.625  0.00  0.00    +0.149 C 
BRANCH  55  58
ATOM     56  C   PRO A   3     -16.070   8.608  26.201  0.00  0.00    +0.241 C 
ATOM     57  O   PRO A   3     -17.003   8.448  26.993  0.00  0.00    -0.273 OA
ATOM     58  N   VAL A   4     -15.951   9.706  25.460  0.00  0.00    -0.297 N 
ATOM     59  H   VAL A   4     -15.173   9.803  24.777  0.00  0.00    +0.150 HD
BRANCH  56  62
ATOM     60  C   THR A   2     -14.321   7.788  23.713  0.00  0.00    +0.246 C 
ATOM     61  N   PRO A   3     -14.026   7.930  24.992  0.00  0.00    -0.272 N 
ATOM     62  CA  PRO A   3     -14.980   7.564  26.038  0.00  0.00    +0.152 C 
ATOM     63  CB  PRO A   3     -14.105   7.551  27.300  0.00  0.00    +0.031 C 
ATOM     64  CG  PRO A   3     -13.050   8.565  27.004  0.00  0.00    +0.024 C 
ATOM     65  CD  PRO A   3     -12.756   8.438  25.532  0.00  0.00    +0.094 C 
ATOM     66  O   THR A   2     -15.390   7.356  23.289  0.00  0.00    -0.273 OA
BRANCH  60  67
ATOM     67  CA  THR A   2     -13.216   8.188  22.736  0.00  0.00    +0.176 C 
BRANCH  67  70
ATOM     68  C   PRO A   1     -12.521   6.064  21.870  0.00  0.00    +0.239 C 
ATOM     69  O   PRO A   1     -11.808   5.920  22.869  0.00  0.00    -0.274 OA
ATOM     70  N   THR A   2     -13.204   7.197  21.668  0.00  0.00    -0.295 N 
ATOM     71  H   THR A   2     -13.711   7.365  20.776  0.00  0.00    +0.150 HD
BRANCH  68  73
ATOM     72  N   PRO A   1     -12.553   5.398  19.460  0.00  0.00    -0.210 NA
ATOM     73  CA  PRO A   1     -12.681   4.951  20.838  0.00  0.00    +0.149 C 
ATOM     74  CB  PRO A   1     -11.530   3.942  20.986  0.00  0.00    +0.028 C 
ATOM     75  CG  PRO A   1     -11.132   3.605  19.587  0.00  0.00    +0.021 C 
ATOM     76  CD  PRO A   1     -11.341   4.856  18.787  0.00  0.00    +0.089 C 
ENDBRANCH  68  73
ENDBRANCH  67  70
BRANCH  67  77
ATOM     77  CB  THR A   2     -13.466   9.623  22.249  0.00  0.00    +0.137 C 
ATOM     78  CG2 THR A   2     -14.775   9.659  21.476  0.00  0.00    +0.034 C 
BRANCH  77  79
ATOM     79  OG1 THR A   2     -13.612  10.501  23.376  0.00  0.00    -0.382 OA
ATOM     80  HG1 THR A   2     -14.379  10.204  23.927  0.00  0.00    +0.210 HD
ENDBRANCH  77  79
ENDBRANCH  67  77
ENDBRANCH  60  67
ENDBRANCH  56  62
ENDBRANCH  55  58
BRANCH  55  81
ATOM     81  CB  VAL A   4     -16.505  11.819  26.666  0.00  0.00    +0.027 C 
ATOM     82  CG2 VAL A   4     -17.579  12.890  26.783  0.00  0.00    +0.002 C 
ATOM     83  CG1 VAL A   4     -15.170  12.429  26.263  0.00  0.00    +0.002 C 
ENDBRANCH  55  81
ENDBRANCH  51  55
ENDBRANCH  50  52
BRANCH  50  84
ATOM     84  CB  ASN A   5     -19.981  12.646  22.282  0.00  0.00    +0.114 C 
BRANCH  84  85
ATOM     85  CG  ASN A   5     -20.463  11.381  21.597  0.00  0.00    +0.222 C 
ATOM     86  ND2 ASN A   5     -21.752  11.092  21.733  0.00  0.00    -0.329 N 
ATOM     87 HD21 ASN A   5     -22.369  11.716  22.291  0.00  0.00    +0.145 HD
ATOM     88 HD22 ASN A   5     -22.145  10.242  21.281  0.00  0.00    +0.145 HD
ATOM     89  OD1 ASN A   5     -19.675  10.688  20.951  0.00  0.00    -0.275 OA
ENDBRANCH  84  85
ENDBRANCH  50  84
ENDBRANCH  46  50
ENDBRANCH   1  48
BRANCH   1  90
ATOM     90  CB  ILE A   6     -14.977  15.585  22.493  0.00  0.00    +0.027 C 
ATOM     91  CG2 ILE A   6     -14.248  16.923  22.531  0.00  0.00    +0.002 C 
BRANCH  90  92
ATOM     92  CG1 ILE A   6     -14.609  14.771  23.735  0.00  0.00    +0.002 C 
ATOM     93  CD1 ILE A   6     -13.207  14.183  23.585  0.00  0.00    +0.000 C 
ENDBRANCH  90  92
ENDBRANCH   1  90
TORSDOF 33
REMARK  Name = ../refined-set-2016/1zpa/1zpa_pocket.pdb
REMARK  219 active torsions:
REMARK  status: ('A' for Active; 'I' for Inactive)
REMARK    1  A    between atoms: _1  and  _3
REMARK    2  A    between atoms: _3  and  _4
REMARK    3  A    between atoms: _3  and  _6
REMARK    4  A    between atoms: _6  and  _7
REMARK    5  A    between atoms: _7  and  _8
REMARK    6  A    between atoms: _8  and  _9
REMARK    7  A    between atoms: _18  and  _20
REMARK    8  A    between atoms: _20  and  _21
REMARK    9  A    between atoms: _20  and  _23
REMARK   10  A    between atoms: _23  and  _24
REMARK   11  A    between atoms: _27  and  _29
REMARK   12  A    between atoms: _29  and  _30
REMARK   13  A    between atoms: _29  and  _32
REMARK   14  A    between atoms: _32  and  _33
REMARK   15  A    between atoms: _36  and  _38
REMARK   16  A    between atoms: _38  and  _39
REMARK   17  A    between atoms: _38  and  _41
REMARK   18  A    between atoms: _41  and  _42
REMARK   19  A    between atoms: _45  and  _47
REMARK   20  A    between atoms: _47  and  _48
REMARK   21  A    between atoms: _47  and  _50
REMARK   22  A    between atoms: _50  and  _51
REMARK   23  A    between atoms: _54  and  _56
REMARK   24  A    between atoms: _56  and  _57
REMARK   25  A    between atoms: _59  and  _61
REMARK   26  A    between atoms: _61  and  _62
REMARK   27  A    between atoms: _65  and  _67
REMARK   28  A    between atoms: _67  and  _68
REMARK   29  A    between atoms: _67  and  _70
REMARK   30  A    between atoms: _70  and  _71
REMARK   31  A    between atoms: _74  and  _76
REMARK   32  A    between atoms: _76  and  _77
REMARK   33  A    between atoms: _76  and  _79
REMARK   34  A    between atoms: _79  and  _80
REMARK   35  A    between atoms: _83  and  _85
REMARK   36  A    between atoms: _85  and  _86
REMARK   37  A    between atoms: _85  and  _88
REMARK   38  A    between atoms: _88  and  _89
REMARK   39  A    between atoms: _92  and  _94
REMARK   40  A    between atoms: _94  and  _95
REMARK   41  A    between atoms: _94  and  _97
REMARK   42  A    between atoms: _100  and  _102
REMARK   43  A    between atoms: _102  and  _103
REMARK   44  A    between atoms: _102  and  _105
REMARK   45  A    between atoms: _105  and  _106
REMARK   46  A    between atoms: _106  and  _107
REMARK   47  A    between atoms: _109  and  _111
REMARK   48  A    between atoms: _111  and  _112
REMARK   49  A    between atoms: _111  and  _114
REMARK   50  A    between atoms: _114  and  _115
REMARK   51  A    between atoms: _118  and  _120
REMARK   52  A    between atoms: _120  and  _121
REMARK   53  A    between atoms: _123  and  _125
REMARK   54  A    between atoms: _125  and  _126
REMARK   55  A    between atoms: _128  and  _130
REMARK   56  A    between atoms: _130  and  _131
REMARK   57  A    between atoms: _130  and  _133
REMARK   58  A    between atoms: _133  and  _134
REMARK   59  A    between atoms: _137  and  _139
REMARK   60  A    between atoms: _139  and  _140
REMARK   61  A    between atoms: _142  and  _144
REMARK   62  A    between atoms: _144  and  _145
REMARK   63  A    between atoms: _147  and  _149
REMARK   64  A    between atoms: _149  and  _150
REMARK   65  A    between atoms: _149  and  _152
REMARK   66  A    between atoms: _152  and  _153
REMARK   67  A    between atoms: _159  and  _161
REMARK   68  A    between atoms: _161  and  _162
REMARK   69  A    between atoms: _161  and  _164
REMARK   70  A    between atoms: _164  and  _165
REMARK   71  A    between atoms: _168  and  _170
REMARK   72  A    between atoms: _170  and  _171
REMARK   73  A    between atoms: _170  and  _173
REMARK   74  A    between atoms: _173  and  _174
REMARK   75  A    between atoms: _177  and  _179
REMARK   76  A    between atoms: _179  and  _180
REMARK   77  A    between atoms: _179  and  _182
REMARK   78  A    between atoms: _182  and  _183
REMARK   79  A    between atoms: _187  and  _188
REMARK   80  A    between atoms: _193  and  _195
REMARK   81  A    between atoms: _195  and  _196
REMARK   82  A    between atoms: _195  and  _198
REMARK   83  A    between atoms: _201  and  _203
REMARK   84  A    between atoms: _203  and  _204
REMARK   85  A    between atoms: _203  and  _206
REMARK   86  A    between atoms: _206  and  _207
REMARK   87  A    between atoms: _212  and  _214
REMARK   88  A    between atoms: _214  and  _215
REMARK   89  A    between atoms: _214  and  _217
REMARK   90  A    between atoms: _217  and  _218
REMARK   91  A    between atoms: _221  and  _223
REMARK   92  A    between atoms: _223  and  _224
REMARK   93  A    between atoms: _226  and  _228
REMARK   94  A    between atoms: _228  and  _229
REMARK   95  A    between atoms: _228  and  _231
REMARK   96  A    between atoms: _231  and  _232
REMARK   97  A    between atoms: _232  and  _233
REMARK   98  A    between atoms: _233  and  _234
REMARK   99  A    between atoms: _243  and  _245
REMARK  100  A    between atoms: _245  and  _246
REMARK  101  A    between atoms: _245  and  _248
REMARK  102  A    between atoms: _248  and  _249
REMARK  103  A    between atoms: _254  and  _256
REMARK  104  A    between atoms: _256  and  _257
REMARK  105  A    between atoms: _256  and  _259
REMARK  106  A    between atoms: _259  and  _260
REMARK  107  A    between atoms: _260  and  _261
REMARK  108  A    between atoms: _261  and  _262
REMARK  109  A    between atoms: _271  and  _273
REMARK  110  A    between atoms: _273  and  _274
REMARK  111  A    between atoms: _273  and  _276
REMARK  112  A    between atoms: _276  and  _277
REMARK  113  A    between atoms: _280  and  _282
REMARK  114  A    between atoms: _282  and  _283
REMARK  115  A    between atoms: _282  and  _285
REMARK  116  A    between atoms: _285  and  _286
REMARK  117  A    between atoms: _289  and  _291
REMARK  118  A    between atoms: _291  and  _292
REMARK  119  A    between atoms: _291  and  _294
REMARK  120  A    between atoms: _294  and  _295
REMARK  121  A    between atoms: _298  and  _300
REMARK  122  A    between atoms: _300  and  _301
REMARK  123  A    between atoms: _300  and  _303
REMARK  124  A    between atoms: _303  and  _304
REMARK  125  A    between atoms: _307  and  _309
REMARK  126  A    between atoms: _309  and  _310
REMARK  127  A    between atoms: _309  and  _312
REMARK  128  A    between atoms: _312  and  _313
REMARK  129  A    between atoms: _316  and  _318
REMARK  130  A    between atoms: _318  and  _319
REMARK  131  A    between atoms: _321  and  _323
REMARK  132  A    between atoms: _323  and  _324
REMARK  133  A    between atoms: _327  and  _329
REMARK  134  A    between atoms: _329  and  _330
REMARK  135  A    between atoms: _329  and  _332
REMARK  136  A    between atoms: _332  and  _333
REMARK  137  A    between atoms: _336  and  _338
REMARK  138  A    between atoms: _338  and  _339
REMARK  139  A    between atoms: _338  and  _341
REMARK  140  A    between atoms: _341  and  _342
REMARK  141  A    between atoms: _345  and  _347
REMARK  142  A    between atoms: _347  and  _348
REMARK  143  A    between atoms: _347  and  _350
REMARK  144  A    between atoms: _350  and  _351
REMARK  145  A    between atoms: _354  and  _356
REMARK  146  A    between atoms: _356  and  _357
REMARK  147  A    between atoms: _356  and  _359
REMARK  148  A    between atoms: _362  and  _364
REMARK  149  A    between atoms: _364  and  _365
REMARK  150  A    between atoms: _364  and  _367
REMARK  151  A    between atoms: _367  and  _368
REMARK  152  A    between atoms: _368  and  _369
REMARK  153  A    between atoms: _369  and  _370
REMARK  154  A    between atoms: _370  and  _371
REMARK  155  A    between atoms: _375  and  _377
REMARK  156  A    between atoms: _377  and  _378
REMARK  157  A    between atoms: _377  and  _380
REMARK  158  A    between atoms: _380  and  _381
REMARK  159  A    between atoms: _381  and  _382
REMARK  160  A    between atoms: _384  and  _386
REMARK  161  A    between atoms: _386  and  _387
REMARK  162  A    between atoms: _386  and  _389
REMARK  163  A    between atoms: _389  and  _390
REMARK  164  A    between atoms: _393  and  _395
REMARK  165  A    between atoms: _395  and  _396
REMARK  166  A    between atoms: _398  and  _400
REMARK  167  A    between atoms: _400  and  _401
REMARK  168  A    between atoms: _403  and  _405
REMARK  169  A    between atoms: _405  and  _406
REMARK  170  A    between atoms: _405  and  _408
REMARK  171  A    between atoms: _408  and  _409
REMARK  172  A    between atoms: _412  and  _414
REMARK  173  A    between atoms: _414  and  _415
REMARK  174  A    between atoms: _417  and  _419
REMARK  175  A    between atoms: _419  and  _420
REMARK  176  A    between atoms: _422  and  _424
REMARK  177  A    between atoms: _424  and  _425
REMARK  178  A    between atoms: _424  and  _427
REMARK  179  A    between atoms: _427  and  _428
REMARK  180  A    between atoms: _431  and  _433
REMARK  181  A    between atoms: _433  and  _434
REMARK  182  A    between atoms: _433  and  _436
REMARK  183  A    between atoms: _439  and  _441
REMARK  184  A    between atoms: _441  and  _442
REMARK  185  A    between atoms: _441  and  _444
REMARK  186  A    between atoms: _444  and  _445
REMARK  187  A    between atoms: _449  and  _450
REMARK  188  A    between atoms: _455  and  _457
REMARK  189  A    between atoms: _457  and  _458
REMARK  190  A    between atoms: _457  and  _460
REMARK  191  A    between atoms: _460  and  _461
REMARK  192  A    between atoms: _465  and  _466
REMARK  193  A    between atoms: _471  and  _473
REMARK  194  A    between atoms: _473  and  _474
REMARK  195  A    between atoms: _473  and  _476
REMARK  196  A    between atoms: _479  and  _481
REMARK  197  A    between atoms: _481  and  _482
REMARK  198  A    between atoms: _481  and  _484
REMARK  199  A    between atoms: _484  and  _485
REMARK  200  A    between atoms: _490  and  _492
REMARK  201  A    between atoms: _492  and  _493
REMARK  202  A    between atoms: _492  and  _495
REMARK  203  A    between atoms: _495  and  _496
REMARK  204  A    between atoms: _499  and  _501
REMARK  205  A    between atoms: _501  and  _502
REMARK  206  A    between atoms: _501  and  _504
REMARK  207  A    between atoms: _504  and  _505
REMARK  208  A    between atoms: _508  and  _510
REMARK  209  A    between atoms: _510  and  _511
REMARK  210  A    between atoms: _513  and  _515
REMARK  211  A    between atoms: _515  and  _516
REMARK  212  A    between atoms: _515  and  _518
REMARK  213  A    between atoms: _518  and  _519
REMARK  214  A    between atoms: _519  and  _520
REMARK  215  A    between atoms: _520  and  _521
REMARK  216  A    between atoms: _530  and  _532
REMARK  217  A    between atoms: _532  and  _533
REMARK  218  A    between atoms: _532  and  _535
REMARK  219  A    between atoms: _535  and  _536
REMARK                            x       y       z     vdW  Elec       q    Type
REMARK                         _______ _______ _______ _____ _____    ______ ____
ROOT
ATOM      1  O   HOH     1      -7.802  13.514  27.160  0.00  0.00    +0.000 OA
ENDROOT
TORSDOF 0
REMARK  Name = ../refined-set-2016/1zpa/1zpa_pocket.pdb
REMARK  219 active torsions:
REMARK  status: ('A' for Active; 'I' for Inactive)
REMARK    1  A    between atoms: _1  and  _3
REMARK    2  A    between atoms: _3  and  _4
REMARK    3  A    between atoms: _3  and  _6
REMARK    4  A    between atoms: _6  and  _7
REMARK    5  A    between atoms: _7  and  _8
REMARK    6  A    between atoms: _8  and  _9
REMARK    7  A    between atoms: _18  and  _20
REMARK    8  A    between atoms: _20  and  _21
REMARK    9  A    between atoms: _20  and  _23
REMARK   10  A    between atoms: _23  and  _24
REMARK   11  A    between atoms: _27  and  _29
REMARK   12  A    between atoms: _29  and  _30
REMARK   13  A    between atoms: _29  and  _32
REMARK   14  A    between atoms: _32  and  _33
REMARK   15  A    between atoms: _36  and  _38
REMARK   16  A    between atoms: _38  and  _39
REMARK   17  A    between atoms: _38  and  _41
REMARK   18  A    between atoms: _41  and  _42
REMARK   19  A    between atoms: _45  and  _47
REMARK   20  A    between atoms: _47  and  _48
REMARK   21  A    between atoms: _47  and  _50
REMARK   22  A    between atoms: _50  and  _51
REMARK   23  A    between atoms: _54  and  _56
REMARK   24  A    between atoms: _56  and  _57
REMARK   25  A    between atoms: _59  and  _61
REMARK   26  A    between atoms: _61  and  _62
REMARK   27  A    between atoms: _65  and  _67
REMARK   28  A    between atoms: _67  and  _68
REMARK   29  A    between atoms: _67  and  _70
REMARK   30  A    between atoms: _70  and  _71
REMARK   31  A    between atoms: _74  and  _76
REMARK   32  A    between atoms: _76  and  _77
REMARK   33  A    between atoms: _76  and  _79
REMARK   34  A    between atoms: _79  and  _80
REMARK   35  A    between atoms: _83  and  _85
REMARK   36  A    between atoms: _85  and  _86
REMARK   37  A    between atoms: _85  and  _88
REMARK   38  A    between atoms: _88  and  _89
REMARK   39  A    between atoms: _92  and  _94
REMARK   40  A    between atoms: _94  and  _95
REMARK   41  A    between atoms: _94  and  _97
REMARK   42  A    between atoms: _100  and  _102
REMARK   43  A    between atoms: _102  and  _103
REMARK   44  A    between atoms: _102  and  _105
REMARK   45  A    between atoms: _105  and  _106
REMARK   46  A    between atoms: _106  and  _107
REMARK   47  A    between atoms: _109  and  _111
REMARK   48  A    between atoms: _111  and  _112
REMARK   49  A    between atoms: _111  and  _114
REMARK   50  A    between atoms: _114  and  _115
REMARK   51  A    between atoms: _118  and  _120
REMARK   52  A    between atoms: _120  and  _121
REMARK   53  A    between atoms: _123  and  _125
REMARK   54  A    between atoms: _125  and  _126
REMARK   55  A    between atoms: _128  and  _130
REMARK   56  A    between atoms: _130  and  _131
REMARK   57  A    between atoms: _130  and  _133
REMARK   58  A    between atoms: _133  and  _134
REMARK   59  A    between atoms: _137  and  _139
REMARK   60  A    between atoms: _139  and  _140
REMARK   61  A    between atoms: _142  and  _144
REMARK   62  A    between atoms: _144  and  _145
REMARK   63  A    between atoms: _147  and  _149
REMARK   64  A    between atoms: _149  and  _150
REMARK   65  A    between atoms: _149  and  _152
REMARK   66  A    between atoms: _152  and  _153
REMARK   67  A    between atoms: _159  and  _161
REMARK   68  A    between atoms: _161  and  _162
REMARK   69  A    between atoms: _161  and  _164
REMARK   70  A    between atoms: _164  and  _165
REMARK   71  A    between atoms: _168  and  _170
REMARK   72  A    between atoms: _170  and  _171
REMARK   73  A    between atoms: _170  and  _173
REMARK   74  A    between atoms: _173  and  _174
REMARK   75  A    between atoms: _177  and  _179
REMARK   76  A    between atoms: _179  and  _180
REMARK   77  A    between atoms: _179  and  _182
REMARK   78  A    between atoms: _182  and  _183
REMARK   79  A    between atoms: _187  and  _188
REMARK   80  A    between atoms: _193  and  _195
REMARK   81  A    between atoms: _195  and  _196
REMARK   82  A    between atoms: _195  and  _198
REMARK   83  A    between atoms: _201  and  _203
REMARK   84  A    between atoms: _203  and  _204
REMARK   85  A    between atoms: _203  and  _206
REMARK   86  A    between atoms: _206  and  _207
REMARK   87  A    between atoms: _212  and  _214
REMARK   88  A    between atoms: _214  and  _215
REMARK   89  A    between atoms: _214  and  _217
REMARK   90  A    between atoms: _217  and  _218
REMARK   91  A    between atoms: _221  and  _223
REMARK   92  A    between atoms: _223  and  _224
REMARK   93  A    between atoms: _226  and  _228
REMARK   94  A    between atoms: _228  and  _229
REMARK   95  A    between atoms: _228  and  _231
REMARK   96  A    between atoms: _231  and  _232
REMARK   97  A    between atoms: _232  and  _233
REMARK   98  A    between atoms: _233  and  _234
REMARK   99  A    between atoms: _243  and  _245
REMARK  100  A    between atoms: _245  and  _246
REMARK  101  A    between atoms: _245  and  _248
REMARK  102  A    between atoms: _248  and  _249
REMARK  103  A    between atoms: _254  and  _256
REMARK  104  A    between atoms: _256  and  _257
REMARK  105  A    between atoms: _256  and  _259
REMARK  106  A    between atoms: _259  and  _260
REMARK  107  A    between atoms: _260  and  _261
REMARK  108  A    between atoms: _261  and  _262
REMARK  109  A    between atoms: _271  and  _273
REMARK  110  A    between atoms: _273  and  _274
REMARK  111  A    between atoms: _273  and  _276
REMARK  112  A    between atoms: _276  and  _277
REMARK  113  A    between atoms: _280  and  _282
REMARK  114  A    between atoms: _282  and  _283
REMARK  115  A    between atoms: _282  and  _285
REMARK  116  A    between atoms: _285  and  _286
REMARK  117  A    between atoms: _289  and  _291
REMARK  118  A    between atoms: _291  and  _292
REMARK  119  A    between atoms: _291  and  _294
REMARK  120  A    between atoms: _294  and  _295
REMARK  121  A    between atoms: _298  and  _300
REMARK  122  A    between atoms: _300  and  _301
REMARK  123  A    between atoms: _300  and  _303
REMARK  124  A    between atoms: _303  and  _304
REMARK  125  A    between atoms: _307  and  _309
REMARK  126  A    between atoms: _309  and  _310
REMARK  127  A    between atoms: _309  and  _312
REMARK  128  A    between atoms: _312  and  _313
REMARK  129  A    between atoms: _316  and  _318
REMARK  130  A    between atoms: _318  and  _319
REMARK  131  A    between atoms: _321  and  _323
REMARK  132  A    between atoms: _323  and  _324
REMARK  133  A    between atoms: _327  and  _329
REMARK  134  A    between atoms: _329  and  _330
REMARK  135  A    between atoms: _329  and  _332
REMARK  136  A    between atoms: _332  and  _333
REMARK  137  A    between atoms: _336  and  _338
REMARK  138  A    between atoms: _338  and  _339
REMARK  139  A    between atoms: _338  and  _341
REMARK  140  A    between atoms: _341  and  _342
REMARK  141  A    between atoms: _345  and  _347
REMARK  142  A    between atoms: _347  and  _348
REMARK  143  A    between atoms: _347  and  _350
REMARK  144  A    between atoms: _350  and  _351
REMARK  145  A    between atoms: _354  and  _356
REMARK  146  A    between atoms: _356  and  _357
REMARK  147  A    between atoms: _356  and  _359
REMARK  148  A    between atoms: _362  and  _364
REMARK  149  A    between atoms: _364  and  _365
REMARK  150  A    between atoms: _364  and  _367
REMARK  151  A    between atoms: _367  and  _368
REMARK  152  A    between atoms: _368  and  _369
REMARK  153  A    between atoms: _369  and  _370
REMARK  154  A    between atoms: _370  and  _371
REMARK  155  A    between atoms: _375  and  _377
REMARK  156  A    between atoms: _377  and  _378
REMARK  157  A    between atoms: _377  and  _380
REMARK  158  A    between atoms: _380  and  _381
REMARK  159  A    between atoms: _381  and  _382
REMARK  160  A    between atoms: _384  and  _386
REMARK  161  A    between atoms: _386  and  _387
REMARK  162  A    between atoms: _386  and  _389
REMARK  163  A    between atoms: _389  and  _390
REMARK  164  A    between atoms: _393  and  _395
REMARK  165  A    between atoms: _395  and  _396
REMARK  166  A    between atoms: _398  and  _400
REMARK  167  A    between atoms: _400  and  _401
REMARK  168  A    between atoms: _403  and  _405
REMARK  169  A    between atoms: _405  and  _406
REMARK  170  A    between atoms: _405  and  _408
REMARK  171  A    between atoms: _408  and  _409
REMARK  172  A    between atoms: _412  and  _414
REMARK  173  A    between atoms: _414  and  _415
REMARK  174  A    between atoms: _417  and  _419
REMARK  175  A    between atoms: _419  and  _420
REMARK  176  A    between atoms: _422  and  _424
REMARK  177  A    between atoms: _424  and  _425
REMARK  178  A    between atoms: _424  and  _427
REMARK  179  A    between atoms: _427  and  _428
REMARK  180  A    between atoms: _431  and  _433
REMARK  181  A    between atoms: _433  and  _434
REMARK  182  A    between atoms: _433  and  _436
REMARK  183  A    between atoms: _439  and  _441
REMARK  184  A    between atoms: _441  and  _442
REMARK  185  A    between atoms: _441  and  _444
REMARK  186  A    between atoms: _444  and  _445
REMARK  187  A    between atoms: _449  and  _450
REMARK  188  A    between atoms: _455  and  _457
REMARK  189  A    between atoms: _457  and  _458
REMARK  190  A    between atoms: _457  and  _460
REMARK  191  A    between atoms: _460  and  _461
REMARK  192  A    between atoms: _465  and  _466
REMARK  193  A    between atoms: _471  and  _473
REMARK  194  A    between atoms: _473  and  _474
REMARK  195  A    between atoms: _473  and  _476
REMARK  196  A    between atoms: _479  and  _481
REMARK  197  A    between atoms: _481  and  _482
REMARK  198  A    between atoms: _481  and  _484
REMARK  199  A    between atoms: _484  and  _485
REMARK  200  A    between atoms: _490  and  _492
REMARK  201  A    between atoms: _492  and  _493
REMARK  202  A    between atoms: _492  and  _495
REMARK  203  A    between atoms: _495  and  _496
REMARK  204  A    between atoms: _499  and  _501
REMARK  205  A    between atoms: _501  and  _502
REMARK  206  A    between atoms: _501  and  _504
REMARK  207  A    between atoms: _504  and  _505
REMARK  208  A    between atoms: _508  and  _510
REMARK  209  A    between atoms: _510  and  _511
REMARK  210  A    between atoms: _513  and  _515
REMARK  211  A    between atoms: _515  and  _516
REMARK  212  A    between atoms: _515  and  _518
REMARK  213  A    between atoms: _518  and  _519
REMARK  214  A    between atoms: _519  and  _520
REMARK  215  A    between atoms: _520  and  _521
REMARK  216  A    between atoms: _530  and  _532
REMARK  217  A    between atoms: _532  and  _533
REMARK  218  A    between atoms: _532  and  _535
REMARK  219  A    between atoms: _535  and  _536
REMARK                            x       y       z     vdW  Elec       q    Type
REMARK                         _______ _______ _______ _____ _____    ______ ____
ROOT
ATOM      1  O   HOH     1     -16.649  19.169  31.955  0.00  0.00    +0.000 OA
ENDROOT
TORSDOF 0
REMARK  Name = ../refined-set-2016/1zpa/1zpa_pocket.pdb
REMARK  219 active torsions:
REMARK  status: ('A' for Active; 'I' for Inactive)
REMARK    1  A    between atoms: _1  and  _3
REMARK    2  A    between atoms: _3  and  _4
REMARK    3  A    between atoms: _3  and  _6
REMARK    4  A    between atoms: _6  and  _7
REMARK    5  A    between atoms: _7  and  _8
REMARK    6  A    between atoms: _8  and  _9
REMARK    7  A    between atoms: _18  and  _20
REMARK    8  A    between atoms: _20  and  _21
REMARK    9  A    between atoms: _20  and  _23
REMARK   10  A    between atoms: _23  and  _24
REMARK   11  A    between atoms: _27  and  _29
REMARK   12  A    between atoms: _29  and  _30
REMARK   13  A    between atoms: _29  and  _32
REMARK   14  A    between atoms: _32  and  _33
REMARK   15  A    between atoms: _36  and  _38
REMARK   16  A    between atoms: _38  and  _39
REMARK   17  A    between atoms: _38  and  _41
REMARK   18  A    between atoms: _41  and  _42
REMARK   19  A    between atoms: _45  and  _47
REMARK   20  A    between atoms: _47  and  _48
REMARK   21  A    between atoms: _47  and  _50
REMARK   22  A    between atoms: _50  and  _51
REMARK   23  A    between atoms: _54  and  _56
REMARK   24  A    between atoms: _56  and  _57
REMARK   25  A    between atoms: _59  and  _61
REMARK   26  A    between atoms: _61  and  _62
REMARK   27  A    between atoms: _65  and  _67
REMARK   28  A    between atoms: _67  and  _68
REMARK   29  A    between atoms: _67  and  _70
REMARK   30  A    between atoms: _70  and  _71
REMARK   31  A    between atoms: _74  and  _76
REMARK   32  A    between atoms: _76  and  _77
REMARK   33  A    between atoms: _76  and  _79
REMARK   34  A    between atoms: _79  and  _80
REMARK   35  A    between atoms: _83  and  _85
REMARK   36  A    between atoms: _85  and  _86
REMARK   37  A    between atoms: _85  and  _88
REMARK   38  A    between atoms: _88  and  _89
REMARK   39  A    between atoms: _92  and  _94
REMARK   40  A    between atoms: _94  and  _95
REMARK   41  A    between atoms: _94  and  _97
REMARK   42  A    between atoms: _100  and  _102
REMARK   43  A    between atoms: _102  and  _103
REMARK   44  A    between atoms: _102  and  _105
REMARK   45  A    between atoms: _105  and  _106
REMARK   46  A    between atoms: _106  and  _107
REMARK   47  A    between atoms: _109  and  _111
REMARK   48  A    between atoms: _111  and  _112
REMARK   49  A    between atoms: _111  and  _114
REMARK   50  A    between atoms: _114  and  _115
REMARK   51  A    between atoms: _118  and  _120
REMARK   52  A    between atoms: _120  and  _121
REMARK   53  A    between atoms: _123  and  _125
REMARK   54  A    between atoms: _125  and  _126
REMARK   55  A    between atoms: _128  and  _130
REMARK   56  A    between atoms: _130  and  _131
REMARK   57  A    between atoms: _130  and  _133
REMARK   58  A    between atoms: _133  and  _134
REMARK   59  A    between atoms: _137  and  _139
REMARK   60  A    between atoms: _139  and  _140
REMARK   61  A    between atoms: _142  and  _144
REMARK   62  A    between atoms: _144  and  _145
REMARK   63  A    between atoms: _147  and  _149
REMARK   64  A    between atoms: _149  and  _150
REMARK   65  A    between atoms: _149  and  _152
REMARK   66  A    between atoms: _152  and  _153
REMARK   67  A    between atoms: _159  and  _161
REMARK   68  A    between atoms: _161  and  _162
REMARK   69  A    between atoms: _161  and  _164
REMARK   70  A    between atoms: _164  and  _165
REMARK   71  A    between atoms: _168  and  _170
REMARK   72  A    between atoms: _170  and  _171
REMARK   73  A    between atoms: _170  and  _173
REMARK   74  A    between atoms: _173  and  _174
REMARK   75  A    between atoms: _177  and  _179
REMARK   76  A    between atoms: _179  and  _180
REMARK   77  A    between atoms: _179  and  _182
REMARK   78  A    between atoms: _182  and  _183
REMARK   79  A    between atoms: _187  and  _188
REMARK   80  A    between atoms: _193  and  _195
REMARK   81  A    between atoms: _195  and  _196
REMARK   82  A    between atoms: _195  and  _198
REMARK   83  A    between atoms: _201  and  _203
REMARK   84  A    between atoms: _203  and  _204
REMARK   85  A    between atoms: _203  and  _206
REMARK   86  A    between atoms: _206  and  _207
REMARK   87  A    between atoms: _212  and  _214
REMARK   88  A    between atoms: _214  and  _215
REMARK   89  A    between atoms: _214  and  _217
REMARK   90  A    between atoms: _217  and  _218
REMARK   91  A    between atoms: _221  and  _223
REMARK   92  A    between atoms: _223  and  _224
REMARK   93  A    between atoms: _226  and  _228
REMARK   94  A    between atoms: _228  and  _229
REMARK   95  A    between atoms: _228  and  _231
REMARK   96  A    between atoms: _231  and  _232
REMARK   97  A    between atoms: _232  and  _233
REMARK   98  A    between atoms: _233  and  _234
REMARK   99  A    between atoms: _243  and  _245
REMARK  100  A    between atoms: _245  and  _246
REMARK  101  A    between atoms: _245  and  _248
REMARK  102  A    between atoms: _248  and  _249
REMARK  103  A    between atoms: _254  and  _256
REMARK  104  A    between atoms: _256  and  _257
REMARK  105  A    between atoms: _256  and  _259
REMARK  106  A    between atoms: _259  and  _260
REMARK  107  A    between atoms: _260  and  _261
REMARK  108  A    between atoms: _261  and  _262
REMARK  109  A    between atoms: _271  and  _273
REMARK  110  A    between atoms: _273  and  _274
REMARK  111  A    between atoms: _273  and  _276
REMARK  112  A    between atoms: _276  and  _277
REMARK  113  A    between atoms: _280  and  _282
REMARK  114  A    between atoms: _282  and  _283
REMARK  115  A    between atoms: _282  and  _285
REMARK  116  A    between atoms: _285  and  _286
REMARK  117  A    between atoms: _289  and  _291
REMARK  118  A    between atoms: _291  and  _292
REMARK  119  A    between atoms: _291  and  _294
REMARK  120  A    between atoms: _294  and  _295
REMARK  121  A    between atoms: _298  and  _300
REMARK  122  A    between atoms: _300  and  _301
REMARK  123  A    between atoms: _300  and  _303
REMARK  124  A    between atoms: _303  and  _304
REMARK  125  A    between atoms: _307  and  _309
REMARK  126  A    between atoms: _309  and  _310
REMARK  127  A    between atoms: _309  and  _312
REMARK  128  A    between atoms: _312  and  _313
REMARK  129  A    between atoms: _316  and  _318
REMARK  130  A    between atoms: _318  and  _319
REMARK  131  A    between atoms: _321  and  _323
REMARK  132  A    between atoms: _323  and  _324
REMARK  133  A    between atoms: _327  and  _329
REMARK  134  A    between atoms: _329  and  _330
REMARK  135  A    between atoms: _329  and  _332
REMARK  136  A    between atoms: _332  and  _333
REMARK  137  A    between atoms: _336  and  _338
REMARK  138  A    between atoms: _338  and  _339
REMARK  139  A    between atoms: _338  and  _341
REMARK  140  A    between atoms: _341  and  _342
REMARK  141  A    between atoms: _345  and  _347
REMARK  142  A    between atoms: _347  and  _348
REMARK  143  A    between atoms: _347  and  _350
REMARK  144  A    between atoms: _350  and  _351
REMARK  145  A    between atoms: _354  and  _356
REMARK  146  A    between atoms: _356  and  _357
REMARK  147  A    between atoms: _356  and  _359
REMARK  148  A    between atoms: _362  and  _364
REMARK  149  A    between atoms: _364  and  _365
REMARK  150  A    between atoms: _364  and  _367
REMARK  151  A    between atoms: _367  and  _368
REMARK  152  A    between atoms: _368  and  _369
REMARK  153  A    between atoms: _369  and  _370
REMARK  154  A    between atoms: _370  and  _371
REMARK  155  A    between atoms: _375  and  _377
REMARK  156  A    between atoms: _377  and  _378
REMARK  157  A    between atoms: _377  and  _380
REMARK  158  A    between atoms: _380  and  _381
REMARK  159  A    between atoms: _381  and  _382
REMARK  160  A    between atoms: _384  and  _386
REMARK  161  A    between atoms: _386  and  _387
REMARK  162  A    between atoms: _386  and  _389
REMARK  163  A    between atoms: _389  and  _390
REMARK  164  A    between atoms: _393  and  _395
REMARK  165  A    between atoms: _395  and  _396
REMARK  166  A    between atoms: _398  and  _400
REMARK  167  A    between atoms: _400  and  _401
REMARK  168  A    between atoms: _403  and  _405
REMARK  169  A    between atoms: _405  and  _406
REMARK  170  A    between atoms: _405  and  _408
REMARK  171  A    between atoms: _408  and  _409
REMARK  172  A    between atoms: _412  and  _414
REMARK  173  A    between atoms: _414  and  _415
REMARK  174  A    between atoms: _417  and  _419
REMARK  175  A    between atoms: _419  and  _420
REMARK  176  A    between atoms: _422  and  _424
REMARK  177  A    between atoms: _424  and  _425
REMARK  178  A    between atoms: _424  and  _427
REMARK  179  A    between atoms: _427  and  _428
REMARK  180  A    between atoms: _431  and  _433
REMARK  181  A    between atoms: _433  and  _434
REMARK  182  A    between atoms: _433  and  _436
REMARK  183  A    between atoms: _439  and  _441
REMARK  184  A    between atoms: _441  and  _442
REMARK  185  A    between atoms: _441  and  _444
REMARK  186  A    between atoms: _444  and  _445
REMARK  187  A    between atoms: _449  and  _450
REMARK  188  A    between atoms: _455  and  _457
REMARK  189  A    between atoms: _457  and  _458
REMARK  190  A    between atoms: _457  and  _460
REMARK  191  A    between atoms: _460  and  _461
REMARK  192  A    between atoms: _465  and  _466
REMARK  193  A    between atoms: _471  and  _473
REMARK  194  A    between atoms: _473  and  _474
REMARK  195  A    between atoms: _473  and  _476
REMARK  196  A    between atoms: _479  and  _481
REMARK  197  A    between atoms: _481  and  _482
REMARK  198  A    between atoms: _481  and  _484
REMARK  199  A    between atoms: _484  and  _485
REMARK  200  A    between atoms: _490  and  _492
REMARK  201  A    between atoms: _492  and  _493
REMARK  202  A    between atoms: _492  and  _495
REMARK  203  A    between atoms: _495  and  _496
REMARK  204  A    between atoms: _499  and  _501
REMARK  205  A    between atoms: _501  and  _502
REMARK  206  A    between atoms: _501  and  _504
REMARK  207  A    between atoms: _504  and  _505
REMARK  208  A    between atoms: _508  and  _510
REMARK  209  A    between atoms: _510  and  _511
REMARK  210  A    between atoms: _513  and  _515
REMARK  211  A    between atoms: _515  and  _516
REMARK  212  A    between atoms: _515  and  _518
REMARK  213  A    between atoms: _518  and  _519
REMARK  214  A    between atoms: _519  and  _520
REMARK  215  A    between atoms: _520  and  _521
REMARK  216  A    between atoms: _530  and  _532
REMARK  217  A    between atoms: _532  and  _533
REMARK  218  A    between atoms: _532  and  _535
REMARK  219  A    between atoms: _535  and  _536
REMARK                            x       y       z     vdW  Elec       q    Type
REMARK                         _______ _______ _______ _____ _____    ______ ____
ROOT
ATOM      1  O   HOH     1     -10.903   6.608  29.577  0.00  0.00    +0.000 OA
ENDROOT
TORSDOF 0
REMARK  Name = ../refined-set-2016/1zpa/1zpa_pocket.pdb
REMARK  219 active torsions:
REMARK  status: ('A' for Active; 'I' for Inactive)
REMARK    1  A    between atoms: _1  and  _3
REMARK    2  A    between atoms: _3  and  _4
REMARK    3  A    between atoms: _3  and  _6
REMARK    4  A    between atoms: _6  and  _7
REMARK    5  A    between atoms: _7  and  _8
REMARK    6  A    between atoms: _8  and  _9
REMARK    7  A    between atoms: _18  and  _20
REMARK    8  A    between atoms: _20  and  _21
REMARK    9  A    between atoms: _20  and  _23
REMARK   10  A    between atoms: _23  and  _24
REMARK   11  A    between atoms: _27  and  _29
REMARK   12  A    between atoms: _29  and  _30
REMARK   13  A    between atoms: _29  and  _32
REMARK   14  A    between atoms: _32  and  _33
REMARK   15  A    between atoms: _36  and  _38
REMARK   16  A    between atoms: _38  and  _39
REMARK   17  A    between atoms: _38  and  _41
REMARK   18  A    between atoms: _41  and  _42
REMARK   19  A    between atoms: _45  and  _47
REMARK   20  A    between atoms: _47  and  _48
REMARK   21  A    between atoms: _47  and  _50
REMARK   22  A    between atoms: _50  and  _51
REMARK   23  A    between atoms: _54  and  _56
REMARK   24  A    between atoms: _56  and  _57
REMARK   25  A    between atoms: _59  and  _61
REMARK   26  A    between atoms: _61  and  _62
REMARK   27  A    between atoms: _65  and  _67
REMARK   28  A    between atoms: _67  and  _68
REMARK   29  A    between atoms: _67  and  _70
REMARK   30  A    between atoms: _70  and  _71
REMARK   31  A    between atoms: _74  and  _76
REMARK   32  A    between atoms: _76  and  _77
REMARK   33  A    between atoms: _76  and  _79
REMARK   34  A    between atoms: _79  and  _80
REMARK   35  A    between atoms: _83  and  _85
REMARK   36  A    between atoms: _85  and  _86
REMARK   37  A    between atoms: _85  and  _88
REMARK   38  A    between atoms: _88  and  _89
REMARK   39  A    between atoms: _92  and  _94
REMARK   40  A    between atoms: _94  and  _95
REMARK   41  A    between atoms: _94  and  _97
REMARK   42  A    between atoms: _100  and  _102
REMARK   43  A    between atoms: _102  and  _103
REMARK   44  A    between atoms: _102  and  _105
REMARK   45  A    between atoms: _105  and  _106
REMARK   46  A    between atoms: _106  and  _107
REMARK   47  A    between atoms: _109  and  _111
REMARK   48  A    between atoms: _111  and  _112
REMARK   49  A    between atoms: _111  and  _114
REMARK   50  A    between atoms: _114  and  _115
REMARK   51  A    between atoms: _118  and  _120
REMARK   52  A    between atoms: _120  and  _121
REMARK   53  A    between atoms: _123  and  _125
REMARK   54  A    between atoms: _125  and  _126
REMARK   55  A    between atoms: _128  and  _130
REMARK   56  A    between atoms: _130  and  _131
REMARK   57  A    between atoms: _130  and  _133
REMARK   58  A    between atoms: _133  and  _134
REMARK   59  A    between atoms: _137  and  _139
REMARK   60  A    between atoms: _139  and  _140
REMARK   61  A    between atoms: _142  and  _144
REMARK   62  A    between atoms: _144  and  _145
REMARK   63  A    between atoms: _147  and  _149
REMARK   64  A    between atoms: _149  and  _150
REMARK   65  A    between atoms: _149  and  _152
REMARK   66  A    between atoms: _152  and  _153
REMARK   67  A    between atoms: _159  and  _161
REMARK   68  A    between atoms: _161  and  _162
REMARK   69  A    between atoms: _161  and  _164
REMARK   70  A    between atoms: _164  and  _165
REMARK   71  A    between atoms: _168  and  _170
REMARK   72  A    between atoms: _170  and  _171
REMARK   73  A    between atoms: _170  and  _173
REMARK   74  A    between atoms: _173  and  _174
REMARK   75  A    between atoms: _177  and  _179
REMARK   76  A    between atoms: _179  and  _180
REMARK   77  A    between atoms: _179  and  _182
REMARK   78  A    between atoms: _182  and  _183
REMARK   79  A    between atoms: _187  and  _188
REMARK   80  A    between atoms: _193  and  _195
REMARK   81  A    between atoms: _195  and  _196
REMARK   82  A    between atoms: _195  and  _198
REMARK   83  A    between atoms: _201  and  _203
REMARK   84  A    between atoms: _203  and  _204
REMARK   85  A    between atoms: _203  and  _206
REMARK   86  A    between atoms: _206  and  _207
REMARK   87  A    between atoms: _212  and  _214
REMARK   88  A    between atoms: _214  and  _215
REMARK   89  A    between atoms: _214  and  _217
REMARK   90  A    between atoms: _217  and  _218
REMARK   91  A    between atoms: _221  and  _223
REMARK   92  A    between atoms: _223  and  _224
REMARK   93  A    between atoms: _226  and  _228
REMARK   94  A    between atoms: _228  and  _229
REMARK   95  A    between atoms: _228  and  _231
REMARK   96  A    between atoms: _231  and  _232
REMARK   97  A    between atoms: _232  and  _233
REMARK   98  A    between atoms: _233  and  _234
REMARK   99  A    between atoms: _243  and  _245
REMARK  100  A    between atoms: _245  and  _246
REMARK  101  A    between atoms: _245  and  _248
REMARK  102  A    between atoms: _248  and  _249
REMARK  103  A    between atoms: _254  and  _256
REMARK  104  A    between atoms: _256  and  _257
REMARK  105  A    between atoms: _256  and  _259
REMARK  106  A    between atoms: _259  and  _260
REMARK  107  A    between atoms: _260  and  _261
REMARK  108  A    between atoms: _261  and  _262
REMARK  109  A    between atoms: _271  and  _273
REMARK  110  A    between atoms: _273  and  _274
REMARK  111  A    between atoms: _273  and  _276
REMARK  112  A    between atoms: _276  and  _277
REMARK  113  A    between atoms: _280  and  _282
REMARK  114  A    between atoms: _282  and  _283
REMARK  115  A    between atoms: _282  and  _285
REMARK  116  A    between atoms: _285  and  _286
REMARK  117  A    between atoms: _289  and  _291
REMARK  118  A    between atoms: _291  and  _292
REMARK  119  A    between atoms: _291  and  _294
REMARK  120  A    between atoms: _294  and  _295
REMARK  121  A    between atoms: _298  and  _300
REMARK  122  A    between atoms: _300  and  _301
REMARK  123  A    between atoms: _300  and  _303
REMARK  124  A    between atoms: _303  and  _304
REMARK  125  A    between atoms: _307  and  _309
REMARK  126  A    between atoms: _309  and  _310
REMARK  127  A    between atoms: _309  and  _312
REMARK  128  A    between atoms: _312  and  _313
REMARK  129  A    between atoms: _316  and  _318
REMARK  130  A    between atoms: _318  and  _319
REMARK  131  A    between atoms: _321  and  _323
REMARK  132  A    between atoms: _323  and  _324
REMARK  133  A    between atoms: _327  and  _329
REMARK  134  A    between atoms: _329  and  _330
REMARK  135  A    between atoms: _329  and  _332
REMARK  136  A    between atoms: _332  and  _333
REMARK  137  A    between atoms: _336  and  _338
REMARK  138  A    between atoms: _338  and  _339
REMARK  139  A    between atoms: _338  and  _341
REMARK  140  A    between atoms: _341  and  _342
REMARK  141  A    between atoms: _345  and  _347
REMARK  142  A    between atoms: _347  and  _348
REMARK  143  A    between atoms: _347  and  _350
REMARK  144  A    between atoms: _350  and  _351
REMARK  145  A    between atoms: _354  and  _356
REMARK  146  A    between atoms: _356  and  _357
REMARK  147  A    between atoms: _356  and  _359
REMARK  148  A    between atoms: _362  and  _364
REMARK  149  A    between atoms: _364  and  _365
REMARK  150  A    between atoms: _364  and  _367
REMARK  151  A    between atoms: _367  and  _368
REMARK  152  A    between atoms: _368  and  _369
REMARK  153  A    between atoms: _369  and  _370
REMARK  154  A    between atoms: _370  and  _371
REMARK  155  A    between atoms: _375  and  _377
REMARK  156  A    between atoms: _377  and  _378
REMARK  157  A    between atoms: _377  and  _380
REMARK  158  A    between atoms: _380  and  _381
REMARK  159  A    between atoms: _381  and  _382
REMARK  160  A    between atoms: _384  and  _386
REMARK  161  A    between atoms: _386  and  _387
REMARK  162  A    between atoms: _386  and  _389
REMARK  163  A    between atoms: _389  and  _390
REMARK  164  A    between atoms: _393  and  _395
REMARK  165  A    between atoms: _395  and  _396
REMARK  166  A    between atoms: _398  and  _400
REMARK  167  A    between atoms: _400  and  _401
REMARK  168  A    between atoms: _403  and  _405
REMARK  169  A    between atoms: _405  and  _406
REMARK  170  A    between atoms: _405  and  _408
REMARK  171  A    between atoms: _408  and  _409
REMARK  172  A    between atoms: _412  and  _414
REMARK  173  A    between atoms: _414  and  _415
REMARK  174  A    between atoms: _417  and  _419
REMARK  175  A    between atoms: _419  and  _420
REMARK  176  A    between atoms: _422  and  _424
REMARK  177  A    between atoms: _424  and  _425
REMARK  178  A    between atoms: _424  and  _427
REMARK  179  A    between atoms: _427  and  _428
REMARK  180  A    between atoms: _431  and  _433
REMARK  181  A    between atoms: _433  and  _434
REMARK  182  A    between atoms: _433  and  _436
REMARK  183  A    between atoms: _439  and  _441
REMARK  184  A    between atoms: _441  and  _442
REMARK  185  A    between atoms: _441  and  _444
REMARK  186  A    between atoms: _444  and  _445
REMARK  187  A    between atoms: _449  and  _450
REMARK  188  A    between atoms: _455  and  _457
REMARK  189  A    between atoms: _457  and  _458
REMARK  190  A    between atoms: _457  and  _460
REMARK  191  A    between atoms: _460  and  _461
REMARK  192  A    between atoms: _465  and  _466
REMARK  193  A    between atoms: _471  and  _473
REMARK  194  A    between atoms: _473  and  _474
REMARK  195  A    between atoms: _473  and  _476
REMARK  196  A    between atoms: _479  and  _481
REMARK  197  A    between atoms: _481  and  _482
REMARK  198  A    between atoms: _481  and  _484
REMARK  199  A    between atoms: _484  and  _485
REMARK  200  A    between atoms: _490  and  _492
REMARK  201  A    between atoms: _492  and  _493
REMARK  202  A    between atoms: _492  and  _495
REMARK  203  A    between atoms: _495  and  _496
REMARK  204  A    between atoms: _499  and  _501
REMARK  205  A    between atoms: _501  and  _502
REMARK  206  A    between atoms: _501  and  _504
REMARK  207  A    between atoms: _504  and  _505
REMARK  208  A    between atoms: _508  and  _510
REMARK  209  A    between atoms: _510  and  _511
REMARK  210  A    between atoms: _513  and  _515
REMARK  211  A    between atoms: _515  and  _516
REMARK  212  A    between atoms: _515  and  _518
REMARK  213  A    between atoms: _518  and  _519
REMARK  214  A    between atoms: _519  and  _520
REMARK  215  A    between atoms: _520  and  _521
REMARK  216  A    between atoms: _530  and  _532
REMARK  217  A    between atoms: _532  and  _533
REMARK  218  A    between atoms: _532  and  _535
REMARK  219  A    between atoms: _535  and  _536
REMARK                            x       y       z     vdW  Elec       q    Type
REMARK                         _______ _______ _______ _____ _____    ______ ____
ROOT
ATOM      1  O   HOH     1     -13.877  15.093  39.820  0.00  0.00    +0.000 OA
ENDROOT
TORSDOF 0
REMARK  Name = ../refined-set-2016/1zpa/1zpa_pocket.pdb
REMARK  219 active torsions:
REMARK  status: ('A' for Active; 'I' for Inactive)
REMARK    1  A    between atoms: _1  and  _3
REMARK    2  A    between atoms: _3  and  _4
REMARK    3  A    between atoms: _3  and  _6
REMARK    4  A    between atoms: _6  and  _7
REMARK    5  A    between atoms: _7  and  _8
REMARK    6  A    between atoms: _8  and  _9
REMARK    7  A    between atoms: _18  and  _20
REMARK    8  A    between atoms: _20  and  _21
REMARK    9  A    between atoms: _20  and  _23
REMARK   10  A    between atoms: _23  and  _24
REMARK   11  A    between atoms: _27  and  _29
REMARK   12  A    between atoms: _29  and  _30
REMARK   13  A    between atoms: _29  and  _32
REMARK   14  A    between atoms: _32  and  _33
REMARK   15  A    between atoms: _36  and  _38
REMARK   16  A    between atoms: _38  and  _39
REMARK   17  A    between atoms: _38  and  _41
REMARK   18  A    between atoms: _41  and  _42
REMARK   19  A    between atoms: _45  and  _47
REMARK   20  A    between atoms: _47  and  _48
REMARK   21  A    between atoms: _47  and  _50
REMARK   22  A    between atoms: _50  and  _51
REMARK   23  A    between atoms: _54  and  _56
REMARK   24  A    between atoms: _56  and  _57
REMARK   25  A    between atoms: _59  and  _61
REMARK   26  A    between atoms: _61  and  _62
REMARK   27  A    between atoms: _65  and  _67
REMARK   28  A    between atoms: _67  and  _68
REMARK   29  A    between atoms: _67  and  _70
REMARK   30  A    between atoms: _70  and  _71
REMARK   31  A    between atoms: _74  and  _76
REMARK   32  A    between atoms: _76  and  _77
REMARK   33  A    between atoms: _76  and  _79
REMARK   34  A    between atoms: _79  and  _80
REMARK   35  A    between atoms: _83  and  _85
REMARK   36  A    between atoms: _85  and  _86
REMARK   37  A    between atoms: _85  and  _88
REMARK   38  A    between atoms: _88  and  _89
REMARK   39  A    between atoms: _92  and  _94
REMARK   40  A    between atoms: _94  and  _95
REMARK   41  A    between atoms: _94  and  _97
REMARK   42  A    between atoms: _100  and  _102
REMARK   43  A    between atoms: _102  and  _103
REMARK   44  A    between atoms: _102  and  _105
REMARK   45  A    between atoms: _105  and  _106
REMARK   46  A    between atoms: _106  and  _107
REMARK   47  A    between atoms: _109  and  _111
REMARK   48  A    between atoms: _111  and  _112
REMARK   49  A    between atoms: _111  and  _114
REMARK   50  A    between atoms: _114  and  _115
REMARK   51  A    between atoms: _118  and  _120
REMARK   52  A    between atoms: _120  and  _121
REMARK   53  A    between atoms: _123  and  _125
REMARK   54  A    between atoms: _125  and  _126
REMARK   55  A    between atoms: _128  and  _130
REMARK   56  A    between atoms: _130  and  _131
REMARK   57  A    between atoms: _130  and  _133
REMARK   58  A    between atoms: _133  and  _134
REMARK   59  A    between atoms: _137  and  _139
REMARK   60  A    between atoms: _139  and  _140
REMARK   61  A    between atoms: _142  and  _144
REMARK   62  A    between atoms: _144  and  _145
REMARK   63  A    between atoms: _147  and  _149
REMARK   64  A    between atoms: _149  and  _150
REMARK   65  A    between atoms: _149  and  _152
REMARK   66  A    between atoms: _152  and  _153
REMARK   67  A    between atoms: _159  and  _161
REMARK   68  A    between atoms: _161  and  _162
REMARK   69  A    between atoms: _161  and  _164
REMARK   70  A    between atoms: _164  and  _165
REMARK   71  A    between atoms: _168  and  _170
REMARK   72  A    between atoms: _170  and  _171
REMARK   73  A    between atoms: _170  and  _173
REMARK   74  A    between atoms: _173  and  _174
REMARK   75  A    between atoms: _177  and  _179
REMARK   76  A    between atoms: _179  and  _180
REMARK   77  A    between atoms: _179  and  _182
REMARK   78  A    between atoms: _182  and  _183
REMARK   79  A    between atoms: _187  and  _188
REMARK   80  A    between atoms: _193  and  _195
REMARK   81  A    between atoms: _195  and  _196
REMARK   82  A    between atoms: _195  and  _198
REMARK   83  A    between atoms: _201  and  _203
REMARK   84  A    between atoms: _203  and  _204
REMARK   85  A    between atoms: _203  and  _206
REMARK   86  A    between atoms: _206  and  _207
REMARK   87  A    between atoms: _212  and  _214
REMARK   88  A    between atoms: _214  and  _215
REMARK   89  A    between atoms: _214  and  _217
REMARK   90  A    between atoms: _217  and  _218
REMARK   91  A    between atoms: _221  and  _223
REMARK   92  A    between atoms: _223  and  _224
REMARK   93  A    between atoms: _226  and  _228
REMARK   94  A    between atoms: _228  and  _229
REMARK   95  A    between atoms: _228  and  _231
REMARK   96  A    between atoms: _231  and  _232
REMARK   97  A    between atoms: _232  and  _233
REMARK   98  A    between atoms: _233  and  _234
REMARK   99  A    between atoms: _243  and  _245
REMARK  100  A    between atoms: _245  and  _246
REMARK  101  A    between atoms: _245  and  _248
REMARK  102  A    between atoms: _248  and  _249
REMARK  103  A    between atoms: _254  and  _256
REMARK  104  A    between atoms: _256  and  _257
REMARK  105  A    between atoms: _256  and  _259
REMARK  106  A    between atoms: _259  and  _260
REMARK  107  A    between atoms: _260  and  _261
REMARK  108  A    between atoms: _261  and  _262
REMARK  109  A    between atoms: _271  and  _273
REMARK  110  A    between atoms: _273  and  _274
REMARK  111  A    between atoms: _273  and  _276
REMARK  112  A    between atoms: _276  and  _277
REMARK  113  A    between atoms: _280  and  _282
REMARK  114  A    between atoms: _282  and  _283
REMARK  115  A    between atoms: _282  and  _285
REMARK  116  A    between atoms: _285  and  _286
REMARK  117  A    between atoms: _289  and  _291
REMARK  118  A    between atoms: _291  and  _292
REMARK  119  A    between atoms: _291  and  _294
REMARK  120  A    between atoms: _294  and  _295
REMARK  121  A    between atoms: _298  and  _300
REMARK  122  A    between atoms: _300  and  _301
REMARK  123  A    between atoms: _300  and  _303
REMARK  124  A    between atoms: _303  and  _304
REMARK  125  A    between atoms: _307  and  _309
REMARK  126  A    between atoms: _309  and  _310
REMARK  127  A    between atoms: _309  and  _312
REMARK  128  A    between atoms: _312  and  _313
REMARK  129  A    between atoms: _316  and  _318
REMARK  130  A    between atoms: _318  and  _319
REMARK  131  A    between atoms: _321  and  _323
REMARK  132  A    between atoms: _323  and  _324
REMARK  133  A    between atoms: _327  and  _329
REMARK  134  A    between atoms: _329  and  _330
REMARK  135  A    between atoms: _329  and  _332
REMARK  136  A    between atoms: _332  and  _333
REMARK  137  A    between atoms: _336  and  _338
REMARK  138  A    between atoms: _338  and  _339
REMARK  139  A    between atoms: _338  and  _341
REMARK  140  A    between atoms: _341  and  _342
REMARK  141  A    between atoms: _345  and  _347
REMARK  142  A    between atoms: _347  and  _348
REMARK  143  A    between atoms: _347  and  _350
REMARK  144  A    between atoms: _350  and  _351
REMARK  145  A    between atoms: _354  and  _356
REMARK  146  A    between atoms: _356  and  _357
REMARK  147  A    between atoms: _356  and  _359
REMARK  148  A    between atoms: _362  and  _364
REMARK  149  A    between atoms: _364  and  _365
REMARK  150  A    between atoms: _364  and  _367
REMARK  151  A    between atoms: _367  and  _368
REMARK  152  A    between atoms: _368  and  _369
REMARK  153  A    between atoms: _369  and  _370
REMARK  154  A    between atoms: _370  and  _371
REMARK  155  A    between atoms: _375  and  _377
REMARK  156  A    between atoms: _377  and  _378
REMARK  157  A    between atoms: _377  and  _380
REMARK  158  A    between atoms: _380  and  _381
REMARK  159  A    between atoms: _381  and  _382
REMARK  160  A    between atoms: _384  and  _386
REMARK  161  A    between atoms: _386  and  _387
REMARK  162  A    between atoms: _386  and  _389
REMARK  163  A    between atoms: _389  and  _390
REMARK  164  A    between atoms: _393  and  _395
REMARK  165  A    between atoms: _395  and  _396
REMARK  166  A    between atoms: _398  and  _400
REMARK  167  A    between atoms: _400  and  _401
REMARK  168  A    between atoms: _403  and  _405
REMARK  169  A    between atoms: _405  and  _406
REMARK  170  A    between atoms: _405  and  _408
REMARK  171  A    between atoms: _408  and  _409
REMARK  172  A    between atoms: _412  and  _414
REMARK  173  A    between atoms: _414  and  _415
REMARK  174  A    between atoms: _417  and  _419
REMARK  175  A    between atoms: _419  and  _420
REMARK  176  A    between atoms: _422  and  _424
REMARK  177  A    between atoms: _424  and  _425
REMARK  178  A    between atoms: _424  and  _427
REMARK  179  A    between atoms: _427  and  _428
REMARK  180  A    between atoms: _431  and  _433
REMARK  181  A    between atoms: _433  and  _434
REMARK  182  A    between atoms: _433  and  _436
REMARK  183  A    between atoms: _439  and  _441
REMARK  184  A    between atoms: _441  and  _442
REMARK  185  A    between atoms: _441  and  _444
REMARK  186  A    between atoms: _444  and  _445
REMARK  187  A    between atoms: _449  and  _450
REMARK  188  A    between atoms: _455  and  _457
REMARK  189  A    between atoms: _457  and  _458
REMARK  190  A    between atoms: _457  and  _460
REMARK  191  A    between atoms: _460  and  _461
REMARK  192  A    between atoms: _465  and  _466
REMARK  193  A    between atoms: _471  and  _473
REMARK  194  A    between atoms: _473  and  _474
REMARK  195  A    between atoms: _473  and  _476
REMARK  196  A    between atoms: _479  and  _481
REMARK  197  A    between atoms: _481  and  _482
REMARK  198  A    between atoms: _481  and  _484
REMARK  199  A    between atoms: _484  and  _485
REMARK  200  A    between atoms: _490  and  _492
REMARK  201  A    between atoms: _492  and  _493
REMARK  202  A    between atoms: _492  and  _495
REMARK  203  A    between atoms: _495  and  _496
REMARK  204  A    between atoms: _499  and  _501
REMARK  205  A    between atoms: _501  and  _502
REMARK  206  A    between atoms: _501  and  _504
REMARK  207  A    between atoms: _504  and  _505
REMARK  208  A    between atoms: _508  and  _510
REMARK  209  A    between atoms: _510  and  _511
REMARK  210  A    between atoms: _513  and  _515
REMARK  211  A    between atoms: _515  and  _516
REMARK  212  A    between atoms: _515  and  _518
REMARK  213  A    between atoms: _518  and  _519
REMARK  214  A    between atoms: _519  and  _520
REMARK  215  A    between atoms: _520  and  _521
REMARK  216  A    between atoms: _530  and  _532
REMARK  217  A    between atoms: _532  and  _533
REMARK  218  A    between atoms: _532  and  _535
REMARK  219  A    between atoms: _535  and  _536
REMARK                            x       y       z     vdW  Elec       q    Type
REMARK                         _______ _______ _______ _____ _____    ______ ____
ROOT
ATOM      1  O   HOH     1     -10.064   4.813  27.204  0.00  0.00    +0.000 OA
ENDROOT
TORSDOF 0
REMARK  Name = ../refined-set-2016/1zpa/1zpa_pocket.pdb
REMARK  219 active torsions:
REMARK  status: ('A' for Active; 'I' for Inactive)
REMARK    1  A    between atoms: _1  and  _3
REMARK    2  A    between atoms: _3  and  _4
REMARK    3  A    between atoms: _3  and  _6
REMARK    4  A    between atoms: _6  and  _7
REMARK    5  A    between atoms: _7  and  _8
REMARK    6  A    between atoms: _8  and  _9
REMARK    7  A    between atoms: _18  and  _20
REMARK    8  A    between atoms: _20  and  _21
REMARK    9  A    between atoms: _20  and  _23
REMARK   10  A    between atoms: _23  and  _24
REMARK   11  A    between atoms: _27  and  _29
REMARK   12  A    between atoms: _29  and  _30
REMARK   13  A    between atoms: _29  and  _32
REMARK   14  A    between atoms: _32  and  _33
REMARK   15  A    between atoms: _36  and  _38
REMARK   16  A    between atoms: _38  and  _39
REMARK   17  A    between atoms: _38  and  _41
REMARK   18  A    between atoms: _41  and  _42
REMARK   19  A    between atoms: _45  and  _47
REMARK   20  A    between atoms: _47  and  _48
REMARK   21  A    between atoms: _47  and  _50
REMARK   22  A    between atoms: _50  and  _51
REMARK   23  A    between atoms: _54  and  _56
REMARK   24  A    between atoms: _56  and  _57
REMARK   25  A    between atoms: _59  and  _61
REMARK   26  A    between atoms: _61  and  _62
REMARK   27  A    between atoms: _65  and  _67
REMARK   28  A    between atoms: _67  and  _68
REMARK   29  A    between atoms: _67  and  _70
REMARK   30  A    between atoms: _70  and  _71
REMARK   31  A    between atoms: _74  and  _76
REMARK   32  A    between atoms: _76  and  _77
REMARK   33  A    between atoms: _76  and  _79
REMARK   34  A    between atoms: _79  and  _80
REMARK   35  A    between atoms: _83  and  _85
REMARK   36  A    between atoms: _85  and  _86
REMARK   37  A    between atoms: _85  and  _88
REMARK   38  A    between atoms: _88  and  _89
REMARK   39  A    between atoms: _92  and  _94
REMARK   40  A    between atoms: _94  and  _95
REMARK   41  A    between atoms: _94  and  _97
REMARK   42  A    between atoms: _100  and  _102
REMARK   43  A    between atoms: _102  and  _103
REMARK   44  A    between atoms: _102  and  _105
REMARK   45  A    between atoms: _105  and  _106
REMARK   46  A    between atoms: _106  and  _107
REMARK   47  A    between atoms: _109  and  _111
REMARK   48  A    between atoms: _111  and  _112
REMARK   49  A    between atoms: _111  and  _114
REMARK   50  A    between atoms: _114  and  _115
REMARK   51  A    between atoms: _118  and  _120
REMARK   52  A    between atoms: _120  and  _121
REMARK   53  A    between atoms: _123  and  _125
REMARK   54  A    between atoms: _125  and  _126
REMARK   55  A    between atoms: _128  and  _130
REMARK   56  A    between atoms: _130  and  _131
REMARK   57  A    between atoms: _130  and  _133
REMARK   58  A    between atoms: _133  and  _134
REMARK   59  A    between atoms: _137  and  _139
REMARK   60  A    between atoms: _139  and  _140
REMARK   61  A    between atoms: _142  and  _144
REMARK   62  A    between atoms: _144  and  _145
REMARK   63  A    between atoms: _147  and  _149
REMARK   64  A    between atoms: _149  and  _150
REMARK   65  A    between atoms: _149  and  _152
REMARK   66  A    between atoms: _152  and  _153
REMARK   67  A    between atoms: _159  and  _161
REMARK   68  A    between atoms: _161  and  _162
REMARK   69  A    between atoms: _161  and  _164
REMARK   70  A    between atoms: _164  and  _165
REMARK   71  A    between atoms: _168  and  _170
REMARK   72  A    between atoms: _170  and  _171
REMARK   73  A    between atoms: _170  and  _173
REMARK   74  A    between atoms: _173  and  _174
REMARK   75  A    between atoms: _177  and  _179
REMARK   76  A    between atoms: _179  and  _180
REMARK   77  A    between atoms: _179  and  _182
REMARK   78  A    between atoms: _182  and  _183
REMARK   79  A    between atoms: _187  and  _188
REMARK   80  A    between atoms: _193  and  _195
REMARK   81  A    between atoms: _195  and  _196
REMARK   82  A    between atoms: _195  and  _198
REMARK   83  A    between atoms: _201  and  _203
REMARK   84  A    between atoms: _203  and  _204
REMARK   85  A    between atoms: _203  and  _206
REMARK   86  A    between atoms: _206  and  _207
REMARK   87  A    between atoms: _212  and  _214
REMARK   88  A    between atoms: _214  and  _215
REMARK   89  A    between atoms: _214  and  _217
REMARK   90  A    between atoms: _217  and  _218
REMARK   91  A    between atoms: _221  and  _223
REMARK   92  A    between atoms: _223  and  _224
REMARK   93  A    between atoms: _226  and  _228
REMARK   94  A    between atoms: _228  and  _229
REMARK   95  A    between atoms: _228  and  _231
REMARK   96  A    between atoms: _231  and  _232
REMARK   97  A    between atoms: _232  and  _233
REMARK   98  A    between atoms: _233  and  _234
REMARK   99  A    between atoms: _243  and  _245
REMARK  100  A    between atoms: _245  and  _246
REMARK  101  A    between atoms: _245  and  _248
REMARK  102  A    between atoms: _248  and  _249
REMARK  103  A    between atoms: _254  and  _256
REMARK  104  A    between atoms: _256  and  _257
REMARK  105  A    between atoms: _256  and  _259
REMARK  106  A    between atoms: _259  and  _260
REMARK  107  A    between atoms: _260  and  _261
REMARK  108  A    between atoms: _261  and  _262
REMARK  109  A    between atoms: _271  and  _273
REMARK  110  A    between atoms: _273  and  _274
REMARK  111  A    between atoms: _273  and  _276
REMARK  112  A    between atoms: _276  and  _277
REMARK  113  A    between atoms: _280  and  _282
REMARK  114  A    between atoms: _282  and  _283
REMARK  115  A    between atoms: _282  and  _285
REMARK  116  A    between atoms: _285  and  _286
REMARK  117  A    between atoms: _289  and  _291
REMARK  118  A    between atoms: _291  and  _292
REMARK  119  A    between atoms: _291  and  _294
REMARK  120  A    between atoms: _294  and  _295
REMARK  121  A    between atoms: _298  and  _300
REMARK  122  A    between atoms: _300  and  _301
REMARK  123  A    between atoms: _300  and  _303
REMARK  124  A    between atoms: _303  and  _304
REMARK  125  A    between atoms: _307  and  _309
REMARK  126  A    between atoms: _309  and  _310
REMARK  127  A    between atoms: _309  and  _312
REMARK  128  A    between atoms: _312  and  _313
REMARK  129  A    between atoms: _316  and  _318
REMARK  130  A    between atoms: _318  and  _319
REMARK  131  A    between atoms: _321  and  _323
REMARK  132  A    between atoms: _323  and  _324
REMARK  133  A    between atoms: _327  and  _329
REMARK  134  A    between atoms: _329  and  _330
REMARK  135  A    between atoms: _329  and  _332
REMARK  136  A    between atoms: _332  and  _333
REMARK  137  A    between atoms: _336  and  _338
REMARK  138  A    between atoms: _338  and  _339
REMARK  139  A    between atoms: _338  and  _341
REMARK  140  A    between atoms: _341  and  _342
REMARK  141  A    between atoms: _345  and  _347
REMARK  142  A    between atoms: _347  and  _348
REMARK  143  A    between atoms: _347  and  _350
REMARK  144  A    between atoms: _350  and  _351
REMARK  145  A    between atoms: _354  and  _356
REMARK  146  A    between atoms: _356  and  _357
REMARK  147  A    between atoms: _356  and  _359
REMARK  148  A    between atoms: _362  and  _364
REMARK  149  A    between atoms: _364  and  _365
REMARK  150  A    between atoms: _364  and  _367
REMARK  151  A    between atoms: _367  and  _368
REMARK  152  A    between atoms: _368  and  _369
REMARK  153  A    between atoms: _369  and  _370
REMARK  154  A    between atoms: _370  and  _371
REMARK  155  A    between atoms: _375  and  _377
REMARK  156  A    between atoms: _377  and  _378
REMARK  157  A    between atoms: _377  and  _380
REMARK  158  A    between atoms: _380  and  _381
REMARK  159  A    between atoms: _381  and  _382
REMARK  160  A    between atoms: _384  and  _386
REMARK  161  A    between atoms: _386  and  _387
REMARK  162  A    between atoms: _386  and  _389
REMARK  163  A    between atoms: _389  and  _390
REMARK  164  A    between atoms: _393  and  _395
REMARK  165  A    between atoms: _395  and  _396
REMARK  166  A    between atoms: _398  and  _400
REMARK  167  A    between atoms: _400  and  _401
REMARK  168  A    between atoms: _403  and  _405
REMARK  169  A    between atoms: _405  and  _406
REMARK  170  A    between atoms: _405  and  _408
REMARK  171  A    between atoms: _408  and  _409
REMARK  172  A    between atoms: _412  and  _414
REMARK  173  A    between atoms: _414  and  _415
REMARK  174  A    between atoms: _417  and  _419
REMARK  175  A    between atoms: _419  and  _420
REMARK  176  A    between atoms: _422  and  _424
REMARK  177  A    between atoms: _424  and  _425
REMARK  178  A    between atoms: _424  and  _427
REMARK  179  A    between atoms: _427  and  _428
REMARK  180  A    between atoms: _431  and  _433
REMARK  181  A    between atoms: _433  and  _434
REMARK  182  A    between atoms: _433  and  _436
REMARK  183  A    between atoms: _439  and  _441
REMARK  184  A    between atoms: _441  and  _442
REMARK  185  A    between atoms: _441  and  _444
REMARK  186  A    between atoms: _444  and  _445
REMARK  187  A    between atoms: _449  and  _450
REMARK  188  A    between atoms: _455  and  _457
REMARK  189  A    between atoms: _457  and  _458
REMARK  190  A    between atoms: _457  and  _460
REMARK  191  A    between atoms: _460  and  _461
REMARK  192  A    between atoms: _465  and  _466
REMARK  193  A    between atoms: _471  and  _473
REMARK  194  A    between atoms: _473  and  _474
REMARK  195  A    between atoms: _473  and  _476
REMARK  196  A    between atoms: _479  and  _481
REMARK  197  A    between atoms: _481  and  _482
REMARK  198  A    between atoms: _481  and  _484
REMARK  199  A    between atoms: _484  and  _485
REMARK  200  A    between atoms: _490  and  _492
REMARK  201  A    between atoms: _492  and  _493
REMARK  202  A    between atoms: _492  and  _495
REMARK  203  A    between atoms: _495  and  _496
REMARK  204  A    between atoms: _499  and  _501
REMARK  205  A    between atoms: _501  and  _502
REMARK  206  A    between atoms: _501  and  _504
REMARK  207  A    between atoms: _504  and  _505
REMARK  208  A    between atoms: _508  and  _510
REMARK  209  A    between atoms: _510  and  _511
REMARK  210  A    between atoms: _513  and  _515
REMARK  211  A    between atoms: _515  and  _516
REMARK  212  A    between atoms: _515  and  _518
REMARK  213  A    between atoms: _518  and  _519
REMARK  214  A    between atoms: _519  and  _520
REMARK  215  A    between atoms: _520  and  _521
REMARK  216  A    between atoms: _530  and  _532
REMARK  217  A    between atoms: _532  and  _533
REMARK  218  A    between atoms: _532  and  _535
REMARK  219  A    between atoms: _535  and  _536
REMARK                            x       y       z     vdW  Elec       q    Type
REMARK                         _______ _______ _______ _____ _____    ______ ____
ROOT
ATOM      1  O   HOH     1     -12.465  12.058  38.925  0.00  0.00    +0.000 OA
ENDROOT
TORSDOF 0
REMARK  Name = ../refined-set-2016/1zpa/1zpa_pocket.pdb
REMARK  219 active torsions:
REMARK  status: ('A' for Active; 'I' for Inactive)
REMARK    1  A    between atoms: _1  and  _3
REMARK    2  A    between atoms: _3  and  _4
REMARK    3  A    between atoms: _3  and  _6
REMARK    4  A    between atoms: _6  and  _7
REMARK    5  A    between atoms: _7  and  _8
REMARK    6  A    between atoms: _8  and  _9
REMARK    7  A    between atoms: _18  and  _20
REMARK    8  A    between atoms: _20  and  _21
REMARK    9  A    between atoms: _20  and  _23
REMARK   10  A    between atoms: _23  and  _24
REMARK   11  A    between atoms: _27  and  _29
REMARK   12  A    between atoms: _29  and  _30
REMARK   13  A    between atoms: _29  and  _32
REMARK   14  A    between atoms: _32  and  _33
REMARK   15  A    between atoms: _36  and  _38
REMARK   16  A    between atoms: _38  and  _39
REMARK   17  A    between atoms: _38  and  _41
REMARK   18  A    between atoms: _41  and  _42
REMARK   19  A    between atoms: _45  and  _47
REMARK   20  A    between atoms: _47  and  _48
REMARK   21  A    between atoms: _47  and  _50
REMARK   22  A    between atoms: _50  and  _51
REMARK   23  A    between atoms: _54  and  _56
REMARK   24  A    between atoms: _56  and  _57
REMARK   25  A    between atoms: _59  and  _61
REMARK   26  A    between atoms: _61  and  _62
REMARK   27  A    between atoms: _65  and  _67
REMARK   28  A    between atoms: _67  and  _68
REMARK   29  A    between atoms: _67  and  _70
REMARK   30  A    between atoms: _70  and  _71
REMARK   31  A    between atoms: _74  and  _76
REMARK   32  A    between atoms: _76  and  _77
REMARK   33  A    between atoms: _76  and  _79
REMARK   34  A    between atoms: _79  and  _80
REMARK   35  A    between atoms: _83  and  _85
REMARK   36  A    between atoms: _85  and  _86
REMARK   37  A    between atoms: _85  and  _88
REMARK   38  A    between atoms: _88  and  _89
REMARK   39  A    between atoms: _92  and  _94
REMARK   40  A    between atoms: _94  and  _95
REMARK   41  A    between atoms: _94  and  _97
REMARK   42  A    between atoms: _100  and  _102
REMARK   43  A    between atoms: _102  and  _103
REMARK   44  A    between atoms: _102  and  _105
REMARK   45  A    between atoms: _105  and  _106
REMARK   46  A    between atoms: _106  and  _107
REMARK   47  A    between atoms: _109  and  _111
REMARK   48  A    between atoms: _111  and  _112
REMARK   49  A    between atoms: _111  and  _114
REMARK   50  A    between atoms: _114  and  _115
REMARK   51  A    between atoms: _118  and  _120
REMARK   52  A    between atoms: _120  and  _121
REMARK   53  A    between atoms: _123  and  _125
REMARK   54  A    between atoms: _125  and  _126
REMARK   55  A    between atoms: _128  and  _130
REMARK   56  A    between atoms: _130  and  _131
REMARK   57  A    between atoms: _130  and  _133
REMARK   58  A    between atoms: _133  and  _134
REMARK   59  A    between atoms: _137  and  _139
REMARK   60  A    between atoms: _139  and  _140
REMARK   61  A    between atoms: _142  and  _144
REMARK   62  A    between atoms: _144  and  _145
REMARK   63  A    between atoms: _147  and  _149
REMARK   64  A    between atoms: _149  and  _150
REMARK   65  A    between atoms: _149  and  _152
REMARK   66  A    between atoms: _152  and  _153
REMARK   67  A    between atoms: _159  and  _161
REMARK   68  A    between atoms: _161  and  _162
REMARK   69  A    between atoms: _161  and  _164
REMARK   70  A    between atoms: _164  and  _165
REMARK   71  A    between atoms: _168  and  _170
REMARK   72  A    between atoms: _170  and  _171
REMARK   73  A    between atoms: _170  and  _173
REMARK   74  A    between atoms: _173  and  _174
REMARK   75  A    between atoms: _177  and  _179
REMARK   76  A    between atoms: _179  and  _180
REMARK   77  A    between atoms: _179  and  _182
REMARK   78  A    between atoms: _182  and  _183
REMARK   79  A    between atoms: _187  and  _188
REMARK   80  A    between atoms: _193  and  _195
REMARK   81  A    between atoms: _195  and  _196
REMARK   82  A    between atoms: _195  and  _198
REMARK   83  A    between atoms: _201  and  _203
REMARK   84  A    between atoms: _203  and  _204
REMARK   85  A    between atoms: _203  and  _206
REMARK   86  A    between atoms: _206  and  _207
REMARK   87  A    between atoms: _212  and  _214
REMARK   88  A    between atoms: _214  and  _215
REMARK   89  A    between atoms: _214  and  _217
REMARK   90  A    between atoms: _217  and  _218
REMARK   91  A    between atoms: _221  and  _223
REMARK   92  A    between atoms: _223  and  _224
REMARK   93  A    between atoms: _226  and  _228
REMARK   94  A    between atoms: _228  and  _229
REMARK   95  A    between atoms: _228  and  _231
REMARK   96  A    between atoms: _231  and  _232
REMARK   97  A    between atoms: _232  and  _233
REMARK   98  A    between atoms: _233  and  _234
REMARK   99  A    between atoms: _243  and  _245
REMARK  100  A    between atoms: _245  and  _246
REMARK  101  A    between atoms: _245  and  _248
REMARK  102  A    between atoms: _248  and  _249
REMARK  103  A    between atoms: _254  and  _256
REMARK  104  A    between atoms: _256  and  _257
REMARK  105  A    between atoms: _256  and  _259
REMARK  106  A    between atoms: _259  and  _260
REMARK  107  A    between atoms: _260  and  _261
REMARK  108  A    between atoms: _261  and  _262
REMARK  109  A    between atoms: _271  and  _273
REMARK  110  A    between atoms: _273  and  _274
REMARK  111  A    between atoms: _273  and  _276
REMARK  112  A    between atoms: _276  and  _277
REMARK  113  A    between atoms: _280  and  _282
REMARK  114  A    between atoms: _282  and  _283
REMARK  115  A    between atoms: _282  and  _285
REMARK  116  A    between atoms: _285  and  _286
REMARK  117  A    between atoms: _289  and  _291
REMARK  118  A    between atoms: _291  and  _292
REMARK  119  A    between atoms: _291  and  _294
REMARK  120  A    between atoms: _294  and  _295
REMARK  121  A    between atoms: _298  and  _300
REMARK  122  A    between atoms: _300  and  _301
REMARK  123  A    between atoms: _300  and  _303
REMARK  124  A    between atoms: _303  and  _304
REMARK  125  A    between atoms: _307  and  _309
REMARK  126  A    between atoms: _309  and  _310
REMARK  127  A    between atoms: _309  and  _312
REMARK  128  A    between atoms: _312  and  _313
REMARK  129  A    between atoms: _316  and  _318
REMARK  130  A    between atoms: _318  and  _319
REMARK  131  A    between atoms: _321  and  _323
REMARK  132  A    between atoms: _323  and  _324
REMARK  133  A    between atoms: _327  and  _329
REMARK  134  A    between atoms: _329  and  _330
REMARK  135  A    between atoms: _329  and  _332
REMARK  136  A    between atoms: _332  and  _333
REMARK  137  A    between atoms: _336  and  _338
REMARK  138  A    between atoms: _338  and  _339
REMARK  139  A    between atoms: _338  and  _341
REMARK  140  A    between atoms: _341  and  _342
REMARK  141  A    between atoms: _345  and  _347
REMARK  142  A    between atoms: _347  and  _348
REMARK  143  A    between atoms: _347  and  _350
REMARK  144  A    between atoms: _350  and  _351
REMARK  145  A    between atoms: _354  and  _356
REMARK  146  A    between atoms: _356  and  _357
REMARK  147  A    between atoms: _356  and  _359
REMARK  148  A    between atoms: _362  and  _364
REMARK  149  A    between atoms: _364  and  _365
REMARK  150  A    between atoms: _364  and  _367
REMARK  151  A    between atoms: _367  and  _368
REMARK  152  A    between atoms: _368  and  _369
REMARK  153  A    between atoms: _369  and  _370
REMARK  154  A    between atoms: _370  and  _371
REMARK  155  A    between atoms: _375  and  _377
REMARK  156  A    between atoms: _377  and  _378
REMARK  157  A    between atoms: _377  and  _380
REMARK  158  A    between atoms: _380  and  _381
REMARK  159  A    between atoms: _381  and  _382
REMARK  160  A    between atoms: _384  and  _386
REMARK  161  A    between atoms: _386  and  _387
REMARK  162  A    between atoms: _386  and  _389
REMARK  163  A    between atoms: _389  and  _390
REMARK  164  A    between atoms: _393  and  _395
REMARK  165  A    between atoms: _395  and  _396
REMARK  166  A    between atoms: _398  and  _400
REMARK  167  A    between atoms: _400  and  _401
REMARK  168  A    between atoms: _403  and  _405
REMARK  169  A    between atoms: _405  and  _406
REMARK  170  A    between atoms: _405  and  _408
REMARK  171  A    between atoms: _408  and  _409
REMARK  172  A    between atoms: _412  and  _414
REMARK  173  A    between atoms: _414  and  _415
REMARK  174  A    between atoms: _417  and  _419
REMARK  175  A    between atoms: _419  and  _420
REMARK  176  A    between atoms: _422  and  _424
REMARK  177  A    between atoms: _424  and  _425
REMARK  178  A    between atoms: _424  and  _427
REMARK  179  A    between atoms: _427  and  _428
REMARK  180  A    between atoms: _431  and  _433
REMARK  181  A    between atoms: _433  and  _434
REMARK  182  A    between atoms: _433  and  _436
REMARK  183  A    between atoms: _439  and  _441
REMARK  184  A    between atoms: _441  and  _442
REMARK  185  A    between atoms: _441  and  _444
REMARK  186  A    between atoms: _444  and  _445
REMARK  187  A    between atoms: _449  and  _450
REMARK  188  A    between atoms: _455  and  _457
REMARK  189  A    between atoms: _457  and  _458
REMARK  190  A    between atoms: _457  and  _460
REMARK  191  A    between atoms: _460  and  _461
REMARK  192  A    between atoms: _465  and  _466
REMARK  193  A    between atoms: _471  and  _473
REMARK  194  A    between atoms: _473  and  _474
REMARK  195  A    between atoms: _473  and  _476
REMARK  196  A    between atoms: _479  and  _481
REMARK  197  A    between atoms: _481  and  _482
REMARK  198  A    between atoms: _481  and  _484
REMARK  199  A    between atoms: _484  and  _485
REMARK  200  A    between atoms: _490  and  _492
REMARK  201  A    between atoms: _492  and  _493
REMARK  202  A    between atoms: _492  and  _495
REMARK  203  A    between atoms: _495  and  _496
REMARK  204  A    between atoms: _499  and  _501
REMARK  205  A    between atoms: _501  and  _502
REMARK  206  A    between atoms: _501  and  _504
REMARK  207  A    between atoms: _504  and  _505
REMARK  208  A    between atoms: _508  and  _510
REMARK  209  A    between atoms: _510  and  _511
REMARK  210  A    between atoms: _513  and  _515
REMARK  211  A    between atoms: _515  and  _516
REMARK  212  A    between atoms: _515  and  _518
REMARK  213  A    between atoms: _518  and  _519
REMARK  214  A    between atoms: _519  and  _520
REMARK  215  A    between atoms: _520  and  _521
REMARK  216  A    between atoms: _530  and  _532
REMARK  217  A    between atoms: _532  and  _533
REMARK  218  A    between atoms: _532  and  _535
REMARK  219  A    between atoms: _535  and  _536
REMARK                            x       y       z     vdW  Elec       q    Type
REMARK                         _______ _______ _______ _____ _____    ______ ____
ROOT
ATOM      1  O   HOH     1     -16.018  16.326  31.643  0.00  0.00    +0.000 OA
ENDROOT
TORSDOF 0
REMARK  Name = ../refined-set-2016/1zpa/1zpa_pocket.pdb
REMARK  219 active torsions:
REMARK  status: ('A' for Active; 'I' for Inactive)
REMARK    1  A    between atoms: _1  and  _3
REMARK    2  A    between atoms: _3  and  _4
REMARK    3  A    between atoms: _3  and  _6
REMARK    4  A    between atoms: _6  and  _7
REMARK    5  A    between atoms: _7  and  _8
REMARK    6  A    between atoms: _8  and  _9
REMARK    7  A    between atoms: _18  and  _20
REMARK    8  A    between atoms: _20  and  _21
REMARK    9  A    between atoms: _20  and  _23
REMARK   10  A    between atoms: _23  and  _24
REMARK   11  A    between atoms: _27  and  _29
REMARK   12  A    between atoms: _29  and  _30
REMARK   13  A    between atoms: _29  and  _32
REMARK   14  A    between atoms: _32  and  _33
REMARK   15  A    between atoms: _36  and  _38
REMARK   16  A    between atoms: _38  and  _39
REMARK   17  A    between atoms: _38  and  _41
REMARK   18  A    between atoms: _41  and  _42
REMARK   19  A    between atoms: _45  and  _47
REMARK   20  A    between atoms: _47  and  _48
REMARK   21  A    between atoms: _47  and  _50
REMARK   22  A    between atoms: _50  and  _51
REMARK   23  A    between atoms: _54  and  _56
REMARK   24  A    between atoms: _56  and  _57
REMARK   25  A    between atoms: _59  and  _61
REMARK   26  A    between atoms: _61  and  _62
REMARK   27  A    between atoms: _65  and  _67
REMARK   28  A    between atoms: _67  and  _68
REMARK   29  A    between atoms: _67  and  _70
REMARK   30  A    between atoms: _70  and  _71
REMARK   31  A    between atoms: _74  and  _76
REMARK   32  A    between atoms: _76  and  _77
REMARK   33  A    between atoms: _76  and  _79
REMARK   34  A    between atoms: _79  and  _80
REMARK   35  A    between atoms: _83  and  _85
REMARK   36  A    between atoms: _85  and  _86
REMARK   37  A    between atoms: _85  and  _88
REMARK   38  A    between atoms: _88  and  _89
REMARK   39  A    between atoms: _92  and  _94
REMARK   40  A    between atoms: _94  and  _95
REMARK   41  A    between atoms: _94  and  _97
REMARK   42  A    between atoms: _100  and  _102
REMARK   43  A    between atoms: _102  and  _103
REMARK   44  A    between atoms: _102  and  _105
REMARK   45  A    between atoms: _105  and  _106
REMARK   46  A    between atoms: _106  and  _107
REMARK   47  A    between atoms: _109  and  _111
REMARK   48  A    between atoms: _111  and  _112
REMARK   49  A    between atoms: _111  and  _114
REMARK   50  A    between atoms: _114  and  _115
REMARK   51  A    between atoms: _118  and  _120
REMARK   52  A    between atoms: _120  and  _121
REMARK   53  A    between atoms: _123  and  _125
REMARK   54  A    between atoms: _125  and  _126
REMARK   55  A    between atoms: _128  and  _130
REMARK   56  A    between atoms: _130  and  _131
REMARK   57  A    between atoms: _130  and  _133
REMARK   58  A    between atoms: _133  and  _134
REMARK   59  A    between atoms: _137  and  _139
REMARK   60  A    between atoms: _139  and  _140
REMARK   61  A    between atoms: _142  and  _144
REMARK   62  A    between atoms: _144  and  _145
REMARK   63  A    between atoms: _147  and  _149
REMARK   64  A    between atoms: _149  and  _150
REMARK   65  A    between atoms: _149  and  _152
REMARK   66  A    between atoms: _152  and  _153
REMARK   67  A    between atoms: _159  and  _161
REMARK   68  A    between atoms: _161  and  _162
REMARK   69  A    between atoms: _161  and  _164
REMARK   70  A    between atoms: _164  and  _165
REMARK   71  A    between atoms: _168  and  _170
REMARK   72  A    between atoms: _170  and  _171
REMARK   73  A    between atoms: _170  and  _173
REMARK   74  A    between atoms: _173  and  _174
REMARK   75  A    between atoms: _177  and  _179
REMARK   76  A    between atoms: _179  and  _180
REMARK   77  A    between atoms: _179  and  _182
REMARK   78  A    between atoms: _182  and  _183
REMARK   79  A    between atoms: _187  and  _188
REMARK   80  A    between atoms: _193  and  _195
REMARK   81  A    between atoms: _195  and  _196
REMARK   82  A    between atoms: _195  and  _198
REMARK   83  A    between atoms: _201  and  _203
REMARK   84  A    between atoms: _203  and  _204
REMARK   85  A    between atoms: _203  and  _206
REMARK   86  A    between atoms: _206  and  _207
REMARK   87  A    between atoms: _212  and  _214
REMARK   88  A    between atoms: _214  and  _215
REMARK   89  A    between atoms: _214  and  _217
REMARK   90  A    between atoms: _217  and  _218
REMARK   91  A    between atoms: _221  and  _223
REMARK   92  A    between atoms: _223  and  _224
REMARK   93  A    between atoms: _226  and  _228
REMARK   94  A    between atoms: _228  and  _229
REMARK   95  A    between atoms: _228  and  _231
REMARK   96  A    between atoms: _231  and  _232
REMARK   97  A    between atoms: _232  and  _233
REMARK   98  A    between atoms: _233  and  _234
REMARK   99  A    between atoms: _243  and  _245
REMARK  100  A    between atoms: _245  and  _246
REMARK  101  A    between atoms: _245  and  _248
REMARK  102  A    between atoms: _248  and  _249
REMARK  103  A    between atoms: _254  and  _256
REMARK  104  A    between atoms: _256  and  _257
REMARK  105  A    between atoms: _256  and  _259
REMARK  106  A    between atoms: _259  and  _260
REMARK  107  A    between atoms: _260  and  _261
REMARK  108  A    between atoms: _261  and  _262
REMARK  109  A    between atoms: _271  and  _273
REMARK  110  A    between atoms: _273  and  _274
REMARK  111  A    between atoms: _273  and  _276
REMARK  112  A    between atoms: _276  and  _277
REMARK  113  A    between atoms: _280  and  _282
REMARK  114  A    between atoms: _282  and  _283
REMARK  115  A    between atoms: _282  and  _285
REMARK  116  A    between atoms: _285  and  _286
REMARK  117  A    between atoms: _289  and  _291
REMARK  118  A    between atoms: _291  and  _292
REMARK  119  A    between atoms: _291  and  _294
REMARK  120  A    between atoms: _294  and  _295
REMARK  121  A    between atoms: _298  and  _300
REMARK  122  A    between atoms: _300  and  _301
REMARK  123  A    between atoms: _300  and  _303
REMARK  124  A    between atoms: _303  and  _304
REMARK  125  A    between atoms: _307  and  _309
REMARK  126  A    between atoms: _309  and  _310
REMARK  127  A    between atoms: _309  and  _312
REMARK  128  A    between atoms: _312  and  _313
REMARK  129  A    between atoms: _316  and  _318
REMARK  130  A    between atoms: _318  and  _319
REMARK  131  A    between atoms: _321  and  _323
REMARK  132  A    between atoms: _323  and  _324
REMARK  133  A    between atoms: _327  and  _329
REMARK  134  A    between atoms: _329  and  _330
REMARK  135  A    between atoms: _329  and  _332
REMARK  136  A    between atoms: _332  and  _333
REMARK  137  A    between atoms: _336  and  _338
REMARK  138  A    between atoms: _338  and  _339
REMARK  139  A    between atoms: _338  and  _341
REMARK  140  A    between atoms: _341  and  _342
REMARK  141  A    between atoms: _345  and  _347
REMARK  142  A    between atoms: _347  and  _348
REMARK  143  A    between atoms: _347  and  _350
REMARK  144  A    between atoms: _350  and  _351
REMARK  145  A    between atoms: _354  and  _356
REMARK  146  A    between atoms: _356  and  _357
REMARK  147  A    between atoms: _356  and  _359
REMARK  148  A    between atoms: _362  and  _364
REMARK  149  A    between atoms: _364  and  _365
REMARK  150  A    between atoms: _364  and  _367
REMARK  151  A    between atoms: _367  and  _368
REMARK  152  A    between atoms: _368  and  _369
REMARK  153  A    between atoms: _369  and  _370
REMARK  154  A    between atoms: _370  and  _371
REMARK  155  A    between atoms: _375  and  _377
REMARK  156  A    between atoms: _377  and  _378
REMARK  157  A    between atoms: _377  and  _380
REMARK  158  A    between atoms: _380  and  _381
REMARK  159  A    between atoms: _381  and  _382
REMARK  160  A    between atoms: _384  and  _386
REMARK  161  A    between atoms: _386  and  _387
REMARK  162  A    between atoms: _386  and  _389
REMARK  163  A    between atoms: _389  and  _390
REMARK  164  A    between atoms: _393  and  _395
REMARK  165  A    between atoms: _395  and  _396
REMARK  166  A    between atoms: _398  and  _400
REMARK  167  A    between atoms: _400  and  _401
REMARK  168  A    between atoms: _403  and  _405
REMARK  169  A    between atoms: _405  and  _406
REMARK  170  A    between atoms: _405  and  _408
REMARK  171  A    between atoms: _408  and  _409
REMARK  172  A    between atoms: _412  and  _414
REMARK  173  A    between atoms: _414  and  _415
REMARK  174  A    between atoms: _417  and  _419
REMARK  175  A    between atoms: _419  and  _420
REMARK  176  A    between atoms: _422  and  _424
REMARK  177  A    between atoms: _424  and  _425
REMARK  178  A    between atoms: _424  and  _427
REMARK  179  A    between atoms: _427  and  _428
REMARK  180  A    between atoms: _431  and  _433
REMARK  181  A    between atoms: _433  and  _434
REMARK  182  A    between atoms: _433  and  _436
REMARK  183  A    between atoms: _439  and  _441
REMARK  184  A    between atoms: _441  and  _442
REMARK  185  A    between atoms: _441  and  _444
REMARK  186  A    between atoms: _444  and  _445
REMARK  187  A    between atoms: _449  and  _450
REMARK  188  A    between atoms: _455  and  _457
REMARK  189  A    between atoms: _457  and  _458
REMARK  190  A    between atoms: _457  and  _460
REMARK  191  A    between atoms: _460  and  _461
REMARK  192  A    between atoms: _465  and  _466
REMARK  193  A    between atoms: _471  and  _473
REMARK  194  A    between atoms: _473  and  _474
REMARK  195  A    between atoms: _473  and  _476
REMARK  196  A    between atoms: _479  and  _481
REMARK  197  A    between atoms: _481  and  _482
REMARK  198  A    between atoms: _481  and  _484
REMARK  199  A    between atoms: _484  and  _485
REMARK  200  A    between atoms: _490  and  _492
REMARK  201  A    between atoms: _492  and  _493
REMARK  202  A    between atoms: _492  and  _495
REMARK  203  A    between atoms: _495  and  _496
REMARK  204  A    between atoms: _499  and  _501
REMARK  205  A    between atoms: _501  and  _502
REMARK  206  A    between atoms: _501  and  _504
REMARK  207  A    between atoms: _504  and  _505
REMARK  208  A    between atoms: _508  and  _510
REMARK  209  A    between atoms: _510  and  _511
REMARK  210  A    between atoms: _513  and  _515
REMARK  211  A    between atoms: _515  and  _516
REMARK  212  A    between atoms: _515  and  _518
REMARK  213  A    between atoms: _518  and  _519
REMARK  214  A    between atoms: _519  and  _520
REMARK  215  A    between atoms: _520  and  _521
REMARK  216  A    between atoms: _530  and  _532
REMARK  217  A    between atoms: _532  and  _533
REMARK  218  A    between atoms: _532  and  _535
REMARK  219  A    between atoms: _535  and  _536
REMARK                            x       y       z     vdW  Elec       q    Type
REMARK                         _______ _______ _______ _____ _____    ______ ____
ROOT
ATOM      1  O   HOH     1     -16.355  12.626  37.383  0.00  0.00    +0.000 OA
ENDROOT
TORSDOF 0
REMARK  Name = ../refined-set-2016/1zpa/1zpa_pocket.pdb
REMARK  219 active torsions:
REMARK  status: ('A' for Active; 'I' for Inactive)
REMARK    1  A    between atoms: _1  and  _3
REMARK    2  A    between atoms: _3  and  _4
REMARK    3  A    between atoms: _3  and  _6
REMARK    4  A    between atoms: _6  and  _7
REMARK    5  A    between atoms: _7  and  _8
REMARK    6  A    between atoms: _8  and  _9
REMARK    7  A    between atoms: _18  and  _20
REMARK    8  A    between atoms: _20  and  _21
REMARK    9  A    between atoms: _20  and  _23
REMARK   10  A    between atoms: _23  and  _24
REMARK   11  A    between atoms: _27  and  _29
REMARK   12  A    between atoms: _29  and  _30
REMARK   13  A    between atoms: _29  and  _32
REMARK   14  A    between atoms: _32  and  _33
REMARK   15  A    between atoms: _36  and  _38
REMARK   16  A    between atoms: _38  and  _39
REMARK   17  A    between atoms: _38  and  _41
REMARK   18  A    between atoms: _41  and  _42
REMARK   19  A    between atoms: _45  and  _47
REMARK   20  A    between atoms: _47  and  _48
REMARK   21  A    between atoms: _47  and  _50
REMARK   22  A    between atoms: _50  and  _51
REMARK   23  A    between atoms: _54  and  _56
REMARK   24  A    between atoms: _56  and  _57
REMARK   25  A    between atoms: _59  and  _61
REMARK   26  A    between atoms: _61  and  _62
REMARK   27  A    between atoms: _65  and  _67
REMARK   28  A    between atoms: _67  and  _68
REMARK   29  A    between atoms: _67  and  _70
REMARK   30  A    between atoms: _70  and  _71
REMARK   31  A    between atoms: _74  and  _76
REMARK   32  A    between atoms: _76  and  _77
REMARK   33  A    between atoms: _76  and  _79
REMARK   34  A    between atoms: _79  and  _80
REMARK   35  A    between atoms: _83  and  _85
REMARK   36  A    between atoms: _85  and  _86
REMARK   37  A    between atoms: _85  and  _88
REMARK   38  A    between atoms: _88  and  _89
REMARK   39  A    between atoms: _92  and  _94
REMARK   40  A    between atoms: _94  and  _95
REMARK   41  A    between atoms: _94  and  _97
REMARK   42  A    between atoms: _100  and  _102
REMARK   43  A    between atoms: _102  and  _103
REMARK   44  A    between atoms: _102  and  _105
REMARK   45  A    between atoms: _105  and  _106
REMARK   46  A    between atoms: _106  and  _107
REMARK   47  A    between atoms: _109  and  _111
REMARK   48  A    between atoms: _111  and  _112
REMARK   49  A    between atoms: _111  and  _114
REMARK   50  A    between atoms: _114  and  _115
REMARK   51  A    between atoms: _118  and  _120
REMARK   52  A    between atoms: _120  and  _121
REMARK   53  A    between atoms: _123  and  _125
REMARK   54  A    between atoms: _125  and  _126
REMARK   55  A    between atoms: _128  and  _130
REMARK   56  A    between atoms: _130  and  _131
REMARK   57  A    between atoms: _130  and  _133
REMARK   58  A    between atoms: _133  and  _134
REMARK   59  A    between atoms: _137  and  _139
REMARK   60  A    between atoms: _139  and  _140
REMARK   61  A    between atoms: _142  and  _144
REMARK   62  A    between atoms: _144  and  _145
REMARK   63  A    between atoms: _147  and  _149
REMARK   64  A    between atoms: _149  and  _150
REMARK   65  A    between atoms: _149  and  _152
REMARK   66  A    between atoms: _152  and  _153
REMARK   67  A    between atoms: _159  and  _161
REMARK   68  A    between atoms: _161  and  _162
REMARK   69  A    between atoms: _161  and  _164
REMARK   70  A    between atoms: _164  and  _165
REMARK   71  A    between atoms: _168  and  _170
REMARK   72  A    between atoms: _170  and  _171
REMARK   73  A    between atoms: _170  and  _173
REMARK   74  A    between atoms: _173  and  _174
REMARK   75  A    between atoms: _177  and  _179
REMARK   76  A    between atoms: _179  and  _180
REMARK   77  A    between atoms: _179  and  _182
REMARK   78  A    between atoms: _182  and  _183
REMARK   79  A    between atoms: _187  and  _188
REMARK   80  A    between atoms: _193  and  _195
REMARK   81  A    between atoms: _195  and  _196
REMARK   82  A    between atoms: _195  and  _198
REMARK   83  A    between atoms: _201  and  _203
REMARK   84  A    between atoms: _203  and  _204
REMARK   85  A    between atoms: _203  and  _206
REMARK   86  A    between atoms: _206  and  _207
REMARK   87  A    between atoms: _212  and  _214
REMARK   88  A    between atoms: _214  and  _215
REMARK   89  A    between atoms: _214  and  _217
REMARK   90  A    between atoms: _217  and  _218
REMARK   91  A    between atoms: _221  and  _223
REMARK   92  A    between atoms: _223  and  _224
REMARK   93  A    between atoms: _226  and  _228
REMARK   94  A    between atoms: _228  and  _229
REMARK   95  A    between atoms: _228  and  _231
REMARK   96  A    between atoms: _231  and  _232
REMARK   97  A    between atoms: _232  and  _233
REMARK   98  A    between atoms: _233  and  _234
REMARK   99  A    between atoms: _243  and  _245
REMARK  100  A    between atoms: _245  and  _246
REMARK  101  A    between atoms: _245  and  _248
REMARK  102  A    between atoms: _248  and  _249
REMARK  103  A    between atoms: _254  and  _256
REMARK  104  A    between atoms: _256  and  _257
REMARK  105  A    between atoms: _256  and  _259
REMARK  106  A    between atoms: _259  and  _260
REMARK  107  A    between atoms: _260  and  _261
REMARK  108  A    between atoms: _261  and  _262
REMARK  109  A    between atoms: _271  and  _273
REMARK  110  A    between atoms: _273  and  _274
REMARK  111  A    between atoms: _273  and  _276
REMARK  112  A    between atoms: _276  and  _277
REMARK  113  A    between atoms: _280  and  _282
REMARK  114  A    between atoms: _282  and  _283
REMARK  115  A    between atoms: _282  and  _285
REMARK  116  A    between atoms: _285  and  _286
REMARK  117  A    between atoms: _289  and  _291
REMARK  118  A    between atoms: _291  and  _292
REMARK  119  A    between atoms: _291  and  _294
REMARK  120  A    between atoms: _294  and  _295
REMARK  121  A    between atoms: _298  and  _300
REMARK  122  A    between atoms: _300  and  _301
REMARK  123  A    between atoms: _300  and  _303
REMARK  124  A    between atoms: _303  and  _304
REMARK  125  A    between atoms: _307  and  _309
REMARK  126  A    between atoms: _309  and  _310
REMARK  127  A    between atoms: _309  and  _312
REMARK  128  A    between atoms: _312  and  _313
REMARK  129  A    between atoms: _316  and  _318
REMARK  130  A    between atoms: _318  and  _319
REMARK  131  A    between atoms: _321  and  _323
REMARK  132  A    between atoms: _323  and  _324
REMARK  133  A    between atoms: _327  and  _329
REMARK  134  A    between atoms: _329  and  _330
REMARK  135  A    between atoms: _329  and  _332
REMARK  136  A    between atoms: _332  and  _333
REMARK  137  A    between atoms: _336  and  _338
REMARK  138  A    between atoms: _338  and  _339
REMARK  139  A    between atoms: _338  and  _341
REMARK  140  A    between atoms: _341  and  _342
REMARK  141  A    between atoms: _345  and  _347
REMARK  142  A    between atoms: _347  and  _348
REMARK  143  A    between atoms: _347  and  _350
REMARK  144  A    between atoms: _350  and  _351
REMARK  145  A    between atoms: _354  and  _356
REMARK  146  A    between atoms: _356  and  _357
REMARK  147  A    between atoms: _356  and  _359
REMARK  148  A    between atoms: _362  and  _364
REMARK  149  A    between atoms: _364  and  _365
REMARK  150  A    between atoms: _364  and  _367
REMARK  151  A    between atoms: _367  and  _368
REMARK  152  A    between atoms: _368  and  _369
REMARK  153  A    between atoms: _369  and  _370
REMARK  154  A    between atoms: _370  and  _371
REMARK  155  A    between atoms: _375  and  _377
REMARK  156  A    between atoms: _377  and  _378
REMARK  157  A    between atoms: _377  and  _380
REMARK  158  A    between atoms: _380  and  _381
REMARK  159  A    between atoms: _381  and  _382
REMARK  160  A    between atoms: _384  and  _386
REMARK  161  A    between atoms: _386  and  _387
REMARK  162  A    between atoms: _386  and  _389
REMARK  163  A    between atoms: _389  and  _390
REMARK  164  A    between atoms: _393  and  _395
REMARK  165  A    between atoms: _395  and  _396
REMARK  166  A    between atoms: _398  and  _400
REMARK  167  A    between atoms: _400  and  _401
REMARK  168  A    between atoms: _403  and  _405
REMARK  169  A    between atoms: _405  and  _406
REMARK  170  A    between atoms: _405  and  _408
REMARK  171  A    between atoms: _408  and  _409
REMARK  172  A    between atoms: _412  and  _414
REMARK  173  A    between atoms: _414  and  _415
REMARK  174  A    between atoms: _417  and  _419
REMARK  175  A    between atoms: _419  and  _420
REMARK  176  A    between atoms: _422  and  _424
REMARK  177  A    between atoms: _424  and  _425
REMARK  178  A    between atoms: _424  and  _427
REMARK  179  A    between atoms: _427  and  _428
REMARK  180  A    between atoms: _431  and  _433
REMARK  181  A    between atoms: _433  and  _434
REMARK  182  A    between atoms: _433  and  _436
REMARK  183  A    between atoms: _439  and  _441
REMARK  184  A    between atoms: _441  and  _442
REMARK  185  A    between atoms: _441  and  _444
REMARK  186  A    between atoms: _444  and  _445
REMARK  187  A    between atoms: _449  and  _450
REMARK  188  A    between atoms: _455  and  _457
REMARK  189  A    between atoms: _457  and  _458
REMARK  190  A    between atoms: _457  and  _460
REMARK  191  A    between atoms: _460  and  _461
REMARK  192  A    between atoms: _465  and  _466
REMARK  193  A    between atoms: _471  and  _473
REMARK  194  A    between atoms: _473  and  _474
REMARK  195  A    between atoms: _473  and  _476
REMARK  196  A    between atoms: _479  and  _481
REMARK  197  A    between atoms: _481  and  _482
REMARK  198  A    between atoms: _481  and  _484
REMARK  199  A    between atoms: _484  and  _485
REMARK  200  A    between atoms: _490  and  _492
REMARK  201  A    between atoms: _492  and  _493
REMARK  202  A    between atoms: _492  and  _495
REMARK  203  A    between atoms: _495  and  _496
REMARK  204  A    between atoms: _499  and  _501
REMARK  205  A    between atoms: _501  and  _502
REMARK  206  A    between atoms: _501  and  _504
REMARK  207  A    between atoms: _504  and  _505
REMARK  208  A    between atoms: _508  and  _510
REMARK  209  A    between atoms: _510  and  _511
REMARK  210  A    between atoms: _513  and  _515
REMARK  211  A    between atoms: _515  and  _516
REMARK  212  A    between atoms: _515  and  _518
REMARK  213  A    between atoms: _518  and  _519
REMARK  214  A    between atoms: _519  and  _520
REMARK  215  A    between atoms: _520  and  _521
REMARK  216  A    between atoms: _530  and  _532
REMARK  217  A    between atoms: _532  and  _533
REMARK  218  A    between atoms: _532  and  _535
REMARK  219  A    between atoms: _535  and  _536
REMARK                            x       y       z     vdW  Elec       q    Type
REMARK                         _______ _______ _______ _____ _____    ______ ____
ROOT
ATOM      1  O   HOH     1     -10.844  10.276  39.911  0.00  0.00    +0.000 OA
ENDROOT
TORSDOF 0
REMARK  Name = ../refined-set-2016/1zpa/1zpa_pocket.pdb
REMARK  219 active torsions:
REMARK  status: ('A' for Active; 'I' for Inactive)
REMARK    1  A    between atoms: _1  and  _3
REMARK    2  A    between atoms: _3  and  _4
REMARK    3  A    between atoms: _3  and  _6
REMARK    4  A    between atoms: _6  and  _7
REMARK    5  A    between atoms: _7  and  _8
REMARK    6  A    between atoms: _8  and  _9
REMARK    7  A    between atoms: _18  and  _20
REMARK    8  A    between atoms: _20  and  _21
REMARK    9  A    between atoms: _20  and  _23
REMARK   10  A    between atoms: _23  and  _24
REMARK   11  A    between atoms: _27  and  _29
REMARK   12  A    between atoms: _29  and  _30
REMARK   13  A    between atoms: _29  and  _32
REMARK   14  A    between atoms: _32  and  _33
REMARK   15  A    between atoms: _36  and  _38
REMARK   16  A    between atoms: _38  and  _39
REMARK   17  A    between atoms: _38  and  _41
REMARK   18  A    between atoms: _41  and  _42
REMARK   19  A    between atoms: _45  and  _47
REMARK   20  A    between atoms: _47  and  _48
REMARK   21  A    between atoms: _47  and  _50
REMARK   22  A    between atoms: _50  and  _51
REMARK   23  A    between atoms: _54  and  _56
REMARK   24  A    between atoms: _56  and  _57
REMARK   25  A    between atoms: _59  and  _61
REMARK   26  A    between atoms: _61  and  _62
REMARK   27  A    between atoms: _65  and  _67
REMARK   28  A    between atoms: _67  and  _68
REMARK   29  A    between atoms: _67  and  _70
REMARK   30  A    between atoms: _70  and  _71
REMARK   31  A    between atoms: _74  and  _76
REMARK   32  A    between atoms: _76  and  _77
REMARK   33  A    between atoms: _76  and  _79
REMARK   34  A    between atoms: _79  and  _80
REMARK   35  A    between atoms: _83  and  _85
REMARK   36  A    between atoms: _85  and  _86
REMARK   37  A    between atoms: _85  and  _88
REMARK   38  A    between atoms: _88  and  _89
REMARK   39  A    between atoms: _92  and  _94
REMARK   40  A    between atoms: _94  and  _95
REMARK   41  A    between atoms: _94  and  _97
REMARK   42  A    between atoms: _100  and  _102
REMARK   43  A    between atoms: _102  and  _103
REMARK   44  A    between atoms: _102  and  _105
REMARK   45  A    between atoms: _105  and  _106
REMARK   46  A    between atoms: _106  and  _107
REMARK   47  A    between atoms: _109  and  _111
REMARK   48  A    between atoms: _111  and  _112
REMARK   49  A    between atoms: _111  and  _114
REMARK   50  A    between atoms: _114  and  _115
REMARK   51  A    between atoms: _118  and  _120
REMARK   52  A    between atoms: _120  and  _121
REMARK   53  A    between atoms: _123  and  _125
REMARK   54  A    between atoms: _125  and  _126
REMARK   55  A    between atoms: _128  and  _130
REMARK   56  A    between atoms: _130  and  _131
REMARK   57  A    between atoms: _130  and  _133
REMARK   58  A    between atoms: _133  and  _134
REMARK   59  A    between atoms: _137  and  _139
REMARK   60  A    between atoms: _139  and  _140
REMARK   61  A    between atoms: _142  and  _144
REMARK   62  A    between atoms: _144  and  _145
REMARK   63  A    between atoms: _147  and  _149
REMARK   64  A    between atoms: _149  and  _150
REMARK   65  A    between atoms: _149  and  _152
REMARK   66  A    between atoms: _152  and  _153
REMARK   67  A    between atoms: _159  and  _161
REMARK   68  A    between atoms: _161  and  _162
REMARK   69  A    between atoms: _161  and  _164
REMARK   70  A    between atoms: _164  and  _165
REMARK   71  A    between atoms: _168  and  _170
REMARK   72  A    between atoms: _170  and  _171
REMARK   73  A    between atoms: _170  and  _173
REMARK   74  A    between atoms: _173  and  _174
REMARK   75  A    between atoms: _177  and  _179
REMARK   76  A    between atoms: _179  and  _180
REMARK   77  A    between atoms: _179  and  _182
REMARK   78  A    between atoms: _182  and  _183
REMARK   79  A    between atoms: _187  and  _188
REMARK   80  A    between atoms: _193  and  _195
REMARK   81  A    between atoms: _195  and  _196
REMARK   82  A    between atoms: _195  and  _198
REMARK   83  A    between atoms: _201  and  _203
REMARK   84  A    between atoms: _203  and  _204
REMARK   85  A    between atoms: _203  and  _206
REMARK   86  A    between atoms: _206  and  _207
REMARK   87  A    between atoms: _212  and  _214
REMARK   88  A    between atoms: _214  and  _215
REMARK   89  A    between atoms: _214  and  _217
REMARK   90  A    between atoms: _217  and  _218
REMARK   91  A    between atoms: _221  and  _223
REMARK   92  A    between atoms: _223  and  _224
REMARK   93  A    between atoms: _226  and  _228
REMARK   94  A    between atoms: _228  and  _229
REMARK   95  A    between atoms: _228  and  _231
REMARK   96  A    between atoms: _231  and  _232
REMARK   97  A    between atoms: _232  and  _233
REMARK   98  A    between atoms: _233  and  _234
REMARK   99  A    between atoms: _243  and  _245
REMARK  100  A    between atoms: _245  and  _246
REMARK  101  A    between atoms: _245  and  _248
REMARK  102  A    between atoms: _248  and  _249
REMARK  103  A    between atoms: _254  and  _256
REMARK  104  A    between atoms: _256  and  _257
REMARK  105  A    between atoms: _256  and  _259
REMARK  106  A    between atoms: _259  and  _260
REMARK  107  A    between atoms: _260  and  _261
REMARK  108  A    between atoms: _261  and  _262
REMARK  109  A    between atoms: _271  and  _273
REMARK  110  A    between atoms: _273  and  _274
REMARK  111  A    between atoms: _273  and  _276
REMARK  112  A    between atoms: _276  and  _277
REMARK  113  A    between atoms: _280  and  _282
REMARK  114  A    between atoms: _282  and  _283
REMARK  115  A    between atoms: _282  and  _285
REMARK  116  A    between atoms: _285  and  _286
REMARK  117  A    between atoms: _289  and  _291
REMARK  118  A    between atoms: _291  and  _292
REMARK  119  A    between atoms: _291  and  _294
REMARK  120  A    between atoms: _294  and  _295
REMARK  121  A    between atoms: _298  and  _300
REMARK  122  A    between atoms: _300  and  _301
REMARK  123  A    between atoms: _300  and  _303
REMARK  124  A    between atoms: _303  and  _304
REMARK  125  A    between atoms: _307  and  _309
REMARK  126  A    between atoms: _309  and  _310
REMARK  127  A    between atoms: _309  and  _312
REMARK  128  A    between atoms: _312  and  _313
REMARK  129  A    between atoms: _316  and  _318
REMARK  130  A    between atoms: _318  and  _319
REMARK  131  A    between atoms: _321  and  _323
REMARK  132  A    between atoms: _323  and  _324
REMARK  133  A    between atoms: _327  and  _329
REMARK  134  A    between atoms: _329  and  _330
REMARK  135  A    between atoms: _329  and  _332
REMARK  136  A    between atoms: _332  and  _333
REMARK  137  A    between atoms: _336  and  _338
REMARK  138  A    between atoms: _338  and  _339
REMARK  139  A    between atoms: _338  and  _341
REMARK  140  A    between atoms: _341  and  _342
REMARK  141  A    between atoms: _345  and  _347
REMARK  142  A    between atoms: _347  and  _348
REMARK  143  A    between atoms: _347  and  _350
REMARK  144  A    between atoms: _350  and  _351
REMARK  145  A    between atoms: _354  and  _356
REMARK  146  A    between atoms: _356  and  _357
REMARK  147  A    between atoms: _356  and  _359
REMARK  148  A    between atoms: _362  and  _364
REMARK  149  A    between atoms: _364  and  _365
REMARK  150  A    between atoms: _364  and  _367
REMARK  151  A    between atoms: _367  and  _368
REMARK  152  A    between atoms: _368  and  _369
REMARK  153  A    between atoms: _369  and  _370
REMARK  154  A    between atoms: _370  and  _371
REMARK  155  A    between atoms: _375  and  _377
REMARK  156  A    between atoms: _377  and  _378
REMARK  157  A    between atoms: _377  and  _380
REMARK  158  A    between atoms: _380  and  _381
REMARK  159  A    between atoms: _381  and  _382
REMARK  160  A    between atoms: _384  and  _386
REMARK  161  A    between atoms: _386  and  _387
REMARK  162  A    between atoms: _386  and  _389
REMARK  163  A    between atoms: _389  and  _390
REMARK  164  A    between atoms: _393  and  _395
REMARK  165  A    between atoms: _395  and  _396
REMARK  166  A    between atoms: _398  and  _400
REMARK  167  A    between atoms: _400  and  _401
REMARK  168  A    between atoms: _403  and  _405
REMARK  169  A    between atoms: _405  and  _406
REMARK  170  A    between atoms: _405  and  _408
REMARK  171  A    between atoms: _408  and  _409
REMARK  172  A    between atoms: _412  and  _414
REMARK  173  A    between atoms: _414  and  _415
REMARK  174  A    between atoms: _417  and  _419
REMARK  175  A    between atoms: _419  and  _420
REMARK  176  A    between atoms: _422  and  _424
REMARK  177  A    between atoms: _424  and  _425
REMARK  178  A    between atoms: _424  and  _427
REMARK  179  A    between atoms: _427  and  _428
REMARK  180  A    between atoms: _431  and  _433
REMARK  181  A    between atoms: _433  and  _434
REMARK  182  A    between atoms: _433  and  _436
REMARK  183  A    between atoms: _439  and  _441
REMARK  184  A    between atoms: _441  and  _442
REMARK  185  A    between atoms: _441  and  _444
REMARK  186  A    between atoms: _444  and  _445
REMARK  187  A    between atoms: _449  and  _450
REMARK  188  A    between atoms: _455  and  _457
REMARK  189  A    between atoms: _457  and  _458
REMARK  190  A    between atoms: _457  and  _460
REMARK  191  A    between atoms: _460  and  _461
REMARK  192  A    between atoms: _465  and  _466
REMARK  193  A    between atoms: _471  and  _473
REMARK  194  A    between atoms: _473  and  _474
REMARK  195  A    between atoms: _473  and  _476
REMARK  196  A    between atoms: _479  and  _481
REMARK  197  A    between atoms: _481  and  _482
REMARK  198  A    between atoms: _481  and  _484
REMARK  199  A    between atoms: _484  and  _485
REMARK  200  A    between atoms: _490  and  _492
REMARK  201  A    between atoms: _492  and  _493
REMARK  202  A    between atoms: _492  and  _495
REMARK  203  A    between atoms: _495  and  _496
REMARK  204  A    between atoms: _499  and  _501
REMARK  205  A    between atoms: _501  and  _502
REMARK  206  A    between atoms: _501  and  _504
REMARK  207  A    between atoms: _504  and  _505
REMARK  208  A    between atoms: _508  and  _510
REMARK  209  A    between atoms: _510  and  _511
REMARK  210  A    between atoms: _513  and  _515
REMARK  211  A    between atoms: _515  and  _516
REMARK  212  A    between atoms: _515  and  _518
REMARK  213  A    between atoms: _518  and  _519
REMARK  214  A    between atoms: _519  and  _520
REMARK  215  A    between atoms: _520  and  _521
REMARK  216  A    between atoms: _530  and  _532
REMARK  217  A    between atoms: _532  and  _533
REMARK  218  A    between atoms: _532  and  _535
REMARK  219  A    between atoms: _535  and  _536
REMARK                            x       y       z     vdW  Elec       q    Type
REMARK                         _______ _______ _______ _____ _____    ______ ____
ROOT
ATOM      1  O   HOH     1      -9.314   6.064  24.720  0.00  0.00    +0.000 OA
ENDROOT
TORSDOF 0
REMARK  Name = ../refined-set-2016/1zpa/1zpa_pocket.pdb
REMARK  219 active torsions:
REMARK  status: ('A' for Active; 'I' for Inactive)
REMARK    1  A    between atoms: _1  and  _3
REMARK    2  A    between atoms: _3  and  _4
REMARK    3  A    between atoms: _3  and  _6
REMARK    4  A    between atoms: _6  and  _7
REMARK    5  A    between atoms: _7  and  _8
REMARK    6  A    between atoms: _8  and  _9
REMARK    7  A    between atoms: _18  and  _20
REMARK    8  A    between atoms: _20  and  _21
REMARK    9  A    between atoms: _20  and  _23
REMARK   10  A    between atoms: _23  and  _24
REMARK   11  A    between atoms: _27  and  _29
REMARK   12  A    between atoms: _29  and  _30
REMARK   13  A    between atoms: _29  and  _32
REMARK   14  A    between atoms: _32  and  _33
REMARK   15  A    between atoms: _36  and  _38
REMARK   16  A    between atoms: _38  and  _39
REMARK   17  A    between atoms: _38  and  _41
REMARK   18  A    between atoms: _41  and  _42
REMARK   19  A    between atoms: _45  and  _47
REMARK   20  A    between atoms: _47  and  _48
REMARK   21  A    between atoms: _47  and  _50
REMARK   22  A    between atoms: _50  and  _51
REMARK   23  A    between atoms: _54  and  _56
REMARK   24  A    between atoms: _56  and  _57
REMARK   25  A    between atoms: _59  and  _61
REMARK   26  A    between atoms: _61  and  _62
REMARK   27  A    between atoms: _65  and  _67
REMARK   28  A    between atoms: _67  and  _68
REMARK   29  A    between atoms: _67  and  _70
REMARK   30  A    between atoms: _70  and  _71
REMARK   31  A    between atoms: _74  and  _76
REMARK   32  A    between atoms: _76  and  _77
REMARK   33  A    between atoms: _76  and  _79
REMARK   34  A    between atoms: _79  and  _80
REMARK   35  A    between atoms: _83  and  _85
REMARK   36  A    between atoms: _85  and  _86
REMARK   37  A    between atoms: _85  and  _88
REMARK   38  A    between atoms: _88  and  _89
REMARK   39  A    between atoms: _92  and  _94
REMARK   40  A    between atoms: _94  and  _95
REMARK   41  A    between atoms: _94  and  _97
REMARK   42  A    between atoms: _100  and  _102
REMARK   43  A    between atoms: _102  and  _103
REMARK   44  A    between atoms: _102  and  _105
REMARK   45  A    between atoms: _105  and  _106
REMARK   46  A    between atoms: _106  and  _107
REMARK   47  A    between atoms: _109  and  _111
REMARK   48  A    between atoms: _111  and  _112
REMARK   49  A    between atoms: _111  and  _114
REMARK   50  A    between atoms: _114  and  _115
REMARK   51  A    between atoms: _118  and  _120
REMARK   52  A    between atoms: _120  and  _121
REMARK   53  A    between atoms: _123  and  _125
REMARK   54  A    between atoms: _125  and  _126
REMARK   55  A    between atoms: _128  and  _130
REMARK   56  A    between atoms: _130  and  _131
REMARK   57  A    between atoms: _130  and  _133
REMARK   58  A    between atoms: _133  and  _134
REMARK   59  A    between atoms: _137  and  _139
REMARK   60  A    between atoms: _139  and  _140
REMARK   61  A    between atoms: _142  and  _144
REMARK   62  A    between atoms: _144  and  _145
REMARK   63  A    between atoms: _147  and  _149
REMARK   64  A    between atoms: _149  and  _150
REMARK   65  A    between atoms: _149  and  _152
REMARK   66  A    between atoms: _152  and  _153
REMARK   67  A    between atoms: _159  and  _161
REMARK   68  A    between atoms: _161  and  _162
REMARK   69  A    between atoms: _161  and  _164
REMARK   70  A    between atoms: _164  and  _165
REMARK   71  A    between atoms: _168  and  _170
REMARK   72  A    between atoms: _170  and  _171
REMARK   73  A    between atoms: _170  and  _173
REMARK   74  A    between atoms: _173  and  _174
REMARK   75  A    between atoms: _177  and  _179
REMARK   76  A    between atoms: _179  and  _180
REMARK   77  A    between atoms: _179  and  _182
REMARK   78  A    between atoms: _182  and  _183
REMARK   79  A    between atoms: _187  and  _188
REMARK   80  A    between atoms: _193  and  _195
REMARK   81  A    between atoms: _195  and  _196
REMARK   82  A    between atoms: _195  and  _198
REMARK   83  A    between atoms: _201  and  _203
REMARK   84  A    between atoms: _203  and  _204
REMARK   85  A    between atoms: _203  and  _206
REMARK   86  A    between atoms: _206  and  _207
REMARK   87  A    between atoms: _212  and  _214
REMARK   88  A    between atoms: _214  and  _215
REMARK   89  A    between atoms: _214  and  _217
REMARK   90  A    between atoms: _217  and  _218
REMARK   91  A    between atoms: _221  and  _223
REMARK   92  A    between atoms: _223  and  _224
REMARK   93  A    between atoms: _226  and  _228
REMARK   94  A    between atoms: _228  and  _229
REMARK   95  A    between atoms: _228  and  _231
REMARK   96  A    between atoms: _231  and  _232
REMARK   97  A    between atoms: _232  and  _233
REMARK   98  A    between atoms: _233  and  _234
REMARK   99  A    between atoms: _243  and  _245
REMARK  100  A    between atoms: _245  and  _246
REMARK  101  A    between atoms: _245  and  _248
REMARK  102  A    between atoms: _248  and  _249
REMARK  103  A    between atoms: _254  and  _256
REMARK  104  A    between atoms: _256  and  _257
REMARK  105  A    between atoms: _256  and  _259
REMARK  106  A    between atoms: _259  and  _260
REMARK  107  A    between atoms: _260  and  _261
REMARK  108  A    between atoms: _261  and  _262
REMARK  109  A    between atoms: _271  and  _273
REMARK  110  A    between atoms: _273  and  _274
REMARK  111  A    between atoms: _273  and  _276
REMARK  112  A    between atoms: _276  and  _277
REMARK  113  A    between atoms: _280  and  _282
REMARK  114  A    between atoms: _282  and  _283
REMARK  115  A    between atoms: _282  and  _285
REMARK  116  A    between atoms: _285  and  _286
REMARK  117  A    between atoms: _289  and  _291
REMARK  118  A    between atoms: _291  and  _292
REMARK  119  A    between atoms: _291  and  _294
REMARK  120  A    between atoms: _294  and  _295
REMARK  121  A    between atoms: _298  and  _300
REMARK  122  A    between atoms: _300  and  _301
REMARK  123  A    between atoms: _300  and  _303
REMARK  124  A    between atoms: _303  and  _304
REMARK  125  A    between atoms: _307  and  _309
REMARK  126  A    between atoms: _309  and  _310
REMARK  127  A    between atoms: _309  and  _312
REMARK  128  A    between atoms: _312  and  _313
REMARK  129  A    between atoms: _316  and  _318
REMARK  130  A    between atoms: _318  and  _319
REMARK  131  A    between atoms: _321  and  _323
REMARK  132  A    between atoms: _323  and  _324
REMARK  133  A    between atoms: _327  and  _329
REMARK  134  A    between atoms: _329  and  _330
REMARK  135  A    between atoms: _329  and  _332
REMARK  136  A    between atoms: _332  and  _333
REMARK  137  A    between atoms: _336  and  _338
REMARK  138  A    between atoms: _338  and  _339
REMARK  139  A    between atoms: _338  and  _341
REMARK  140  A    between atoms: _341  and  _342
REMARK  141  A    between atoms: _345  and  _347
REMARK  142  A    between atoms: _347  and  _348
REMARK  143  A    between atoms: _347  and  _350
REMARK  144  A    between atoms: _350  and  _351
REMARK  145  A    between atoms: _354  and  _356
REMARK  146  A    between atoms: _356  and  _357
REMARK  147  A    between atoms: _356  and  _359
REMARK  148  A    between atoms: _362  and  _364
REMARK  149  A    between atoms: _364  and  _365
REMARK  150  A    between atoms: _364  and  _367
REMARK  151  A    between atoms: _367  and  _368
REMARK  152  A    between atoms: _368  and  _369
REMARK  153  A    between atoms: _369  and  _370
REMARK  154  A    between atoms: _370  and  _371
REMARK  155  A    between atoms: _375  and  _377
REMARK  156  A    between atoms: _377  and  _378
REMARK  157  A    between atoms: _377  and  _380
REMARK  158  A    between atoms: _380  and  _381
REMARK  159  A    between atoms: _381  and  _382
REMARK  160  A    between atoms: _384  and  _386
REMARK  161  A    between atoms: _386  and  _387
REMARK  162  A    between atoms: _386  and  _389
REMARK  163  A    between atoms: _389  and  _390
REMARK  164  A    between atoms: _393  and  _395
REMARK  165  A    between atoms: _395  and  _396
REMARK  166  A    between atoms: _398  and  _400
REMARK  167  A    between atoms: _400  and  _401
REMARK  168  A    between atoms: _403  and  _405
REMARK  169  A    between atoms: _405  and  _406
REMARK  170  A    between atoms: _405  and  _408
REMARK  171  A    between atoms: _408  and  _409
REMARK  172  A    between atoms: _412  and  _414
REMARK  173  A    between atoms: _414  and  _415
REMARK  174  A    between atoms: _417  and  _419
REMARK  175  A    between atoms: _419  and  _420
REMARK  176  A    between atoms: _422  and  _424
REMARK  177  A    between atoms: _424  and  _425
REMARK  178  A    between atoms: _424  and  _427
REMARK  179  A    between atoms: _427  and  _428
REMARK  180  A    between atoms: _431  and  _433
REMARK  181  A    between atoms: _433  and  _434
REMARK  182  A    between atoms: _433  and  _436
REMARK  183  A    between atoms: _439  and  _441
REMARK  184  A    between atoms: _441  and  _442
REMARK  185  A    between atoms: _441  and  _444
REMARK  186  A    between atoms: _444  and  _445
REMARK  187  A    between atoms: _449  and  _450
REMARK  188  A    between atoms: _455  and  _457
REMARK  189  A    between atoms: _457  and  _458
REMARK  190  A    between atoms: _457  and  _460
REMARK  191  A    between atoms: _460  and  _461
REMARK  192  A    between atoms: _465  and  _466
REMARK  193  A    between atoms: _471  and  _473
REMARK  194  A    between atoms: _473  and  _474
REMARK  195  A    between atoms: _473  and  _476
REMARK  196  A    between atoms: _479  and  _481
REMARK  197  A    between atoms: _481  and  _482
REMARK  198  A    between atoms: _481  and  _484
REMARK  199  A    between atoms: _484  and  _485
REMARK  200  A    between atoms: _490  and  _492
REMARK  201  A    between atoms: _492  and  _493
REMARK  202  A    between atoms: _492  and  _495
REMARK  203  A    between atoms: _495  and  _496
REMARK  204  A    between atoms: _499  and  _501
REMARK  205  A    between atoms: _501  and  _502
REMARK  206  A    between atoms: _501  and  _504
REMARK  207  A    between atoms: _504  and  _505
REMARK  208  A    between atoms: _508  and  _510
REMARK  209  A    between atoms: _510  and  _511
REMARK  210  A    between atoms: _513  and  _515
REMARK  211  A    between atoms: _515  and  _516
REMARK  212  A    between atoms: _515  and  _518
REMARK  213  A    between atoms: _518  and  _519
REMARK  214  A    between atoms: _519  and  _520
REMARK  215  A    between atoms: _520  and  _521
REMARK  216  A    between atoms: _530  and  _532
REMARK  217  A    between atoms: _532  and  _533
REMARK  218  A    between atoms: _532  and  _535
REMARK  219  A    between atoms: _535  and  _536
REMARK                            x       y       z     vdW  Elec       q    Type
REMARK                         _______ _______ _______ _____ _____    ______ ____
ROOT
ATOM      1  O   HOH     1     -17.054  17.918  38.699  0.00  0.00    +0.000 OA
ENDROOT
TORSDOF 0
REMARK  Name = ../refined-set-2016/1zpa/1zpa_pocket.pdb
REMARK  219 active torsions:
REMARK  status: ('A' for Active; 'I' for Inactive)
REMARK    1  A    between atoms: _1  and  _3
REMARK    2  A    between atoms: _3  and  _4
REMARK    3  A    between atoms: _3  and  _6
REMARK    4  A    between atoms: _6  and  _7
REMARK    5  A    between atoms: _7  and  _8
REMARK    6  A    between atoms: _8  and  _9
REMARK    7  A    between atoms: _18  and  _20
REMARK    8  A    between atoms: _20  and  _21
REMARK    9  A    between atoms: _20  and  _23
REMARK   10  A    between atoms: _23  and  _24
REMARK   11  A    between atoms: _27  and  _29
REMARK   12  A    between atoms: _29  and  _30
REMARK   13  A    between atoms: _29  and  _32
REMARK   14  A    between atoms: _32  and  _33
REMARK   15  A    between atoms: _36  and  _38
REMARK   16  A    between atoms: _38  and  _39
REMARK   17  A    between atoms: _38  and  _41
REMARK   18  A    between atoms: _41  and  _42
REMARK   19  A    between atoms: _45  and  _47
REMARK   20  A    between atoms: _47  and  _48
REMARK   21  A    between atoms: _47  and  _50
REMARK   22  A    between atoms: _50  and  _51
REMARK   23  A    between atoms: _54  and  _56
REMARK   24  A    between atoms: _56  and  _57
REMARK   25  A    between atoms: _59  and  _61
REMARK   26  A    between atoms: _61  and  _62
REMARK   27  A    between atoms: _65  and  _67
REMARK   28  A    between atoms: _67  and  _68
REMARK   29  A    between atoms: _67  and  _70
REMARK   30  A    between atoms: _70  and  _71
REMARK   31  A    between atoms: _74  and  _76
REMARK   32  A    between atoms: _76  and  _77
REMARK   33  A    between atoms: _76  and  _79
REMARK   34  A    between atoms: _79  and  _80
REMARK   35  A    between atoms: _83  and  _85
REMARK   36  A    between atoms: _85  and  _86
REMARK   37  A    between atoms: _85  and  _88
REMARK   38  A    between atoms: _88  and  _89
REMARK   39  A    between atoms: _92  and  _94
REMARK   40  A    between atoms: _94  and  _95
REMARK   41  A    between atoms: _94  and  _97
REMARK   42  A    between atoms: _100  and  _102
REMARK   43  A    between atoms: _102  and  _103
REMARK   44  A    between atoms: _102  and  _105
REMARK   45  A    between atoms: _105  and  _106
REMARK   46  A    between atoms: _106  and  _107
REMARK   47  A    between atoms: _109  and  _111
REMARK   48  A    between atoms: _111  and  _112
REMARK   49  A    between atoms: _111  and  _114
REMARK   50  A    between atoms: _114  and  _115
REMARK   51  A    between atoms: _118  and  _120
REMARK   52  A    between atoms: _120  and  _121
REMARK   53  A    between atoms: _123  and  _125
REMARK   54  A    between atoms: _125  and  _126
REMARK   55  A    between atoms: _128  and  _130
REMARK   56  A    between atoms: _130  and  _131
REMARK   57  A    between atoms: _130  and  _133
REMARK   58  A    between atoms: _133  and  _134
REMARK   59  A    between atoms: _137  and  _139
REMARK   60  A    between atoms: _139  and  _140
REMARK   61  A    between atoms: _142  and  _144
REMARK   62  A    between atoms: _144  and  _145
REMARK   63  A    between atoms: _147  and  _149
REMARK   64  A    between atoms: _149  and  _150
REMARK   65  A    between atoms: _149  and  _152
REMARK   66  A    between atoms: _152  and  _153
REMARK   67  A    between atoms: _159  and  _161
REMARK   68  A    between atoms: _161  and  _162
REMARK   69  A    between atoms: _161  and  _164
REMARK   70  A    between atoms: _164  and  _165
REMARK   71  A    between atoms: _168  and  _170
REMARK   72  A    between atoms: _170  and  _171
REMARK   73  A    between atoms: _170  and  _173
REMARK   74  A    between atoms: _173  and  _174
REMARK   75  A    between atoms: _177  and  _179
REMARK   76  A    between atoms: _179  and  _180
REMARK   77  A    between atoms: _179  and  _182
REMARK   78  A    between atoms: _182  and  _183
REMARK   79  A    between atoms: _187  and  _188
REMARK   80  A    between atoms: _193  and  _195
REMARK   81  A    between atoms: _195  and  _196
REMARK   82  A    between atoms: _195  and  _198
REMARK   83  A    between atoms: _201  and  _203
REMARK   84  A    between atoms: _203  and  _204
REMARK   85  A    between atoms: _203  and  _206
REMARK   86  A    between atoms: _206  and  _207
REMARK   87  A    between atoms: _212  and  _214
REMARK   88  A    between atoms: _214  and  _215
REMARK   89  A    between atoms: _214  and  _217
REMARK   90  A    between atoms: _217  and  _218
REMARK   91  A    between atoms: _221  and  _223
REMARK   92  A    between atoms: _223  and  _224
REMARK   93  A    between atoms: _226  and  _228
REMARK   94  A    between atoms: _228  and  _229
REMARK   95  A    between atoms: _228  and  _231
REMARK   96  A    between atoms: _231  and  _232
REMARK   97  A    between atoms: _232  and  _233
REMARK   98  A    between atoms: _233  and  _234
REMARK   99  A    between atoms: _243  and  _245
REMARK  100  A    between atoms: _245  and  _246
REMARK  101  A    between atoms: _245  and  _248
REMARK  102  A    between atoms: _248  and  _249
REMARK  103  A    between atoms: _254  and  _256
REMARK  104  A    between atoms: _256  and  _257
REMARK  105  A    between atoms: _256  and  _259
REMARK  106  A    between atoms: _259  and  _260
REMARK  107  A    between atoms: _260  and  _261
REMARK  108  A    between atoms: _261  and  _262
REMARK  109  A    between atoms: _271  and  _273
REMARK  110  A    between atoms: _273  and  _274
REMARK  111  A    between atoms: _273  and  _276
REMARK  112  A    between atoms: _276  and  _277
REMARK  113  A    between atoms: _280  and  _282
REMARK  114  A    between atoms: _282  and  _283
REMARK  115  A    between atoms: _282  and  _285
REMARK  116  A    between atoms: _285  and  _286
REMARK  117  A    between atoms: _289  and  _291
REMARK  118  A    between atoms: _291  and  _292
REMARK  119  A    between atoms: _291  and  _294
REMARK  120  A    between atoms: _294  and  _295
REMARK  121  A    between atoms: _298  and  _300
REMARK  122  A    between atoms: _300  and  _301
REMARK  123  A    between atoms: _300  and  _303
REMARK  124  A    between atoms: _303  and  _304
REMARK  125  A    between atoms: _307  and  _309
REMARK  126  A    between atoms: _309  and  _310
REMARK  127  A    between atoms: _309  and  _312
REMARK  128  A    between atoms: _312  and  _313
REMARK  129  A    between atoms: _316  and  _318
REMARK  130  A    between atoms: _318  and  _319
REMARK  131  A    between atoms: _321  and  _323
REMARK  132  A    between atoms: _323  and  _324
REMARK  133  A    between atoms: _327  and  _329
REMARK  134  A    between atoms: _329  and  _330
REMARK  135  A    between atoms: _329  and  _332
REMARK  136  A    between atoms: _332  and  _333
REMARK  137  A    between atoms: _336  and  _338
REMARK  138  A    between atoms: _338  and  _339
REMARK  139  A    between atoms: _338  and  _341
REMARK  140  A    between atoms: _341  and  _342
REMARK  141  A    between atoms: _345  and  _347
REMARK  142  A    between atoms: _347  and  _348
REMARK  143  A    between atoms: _347  and  _350
REMARK  144  A    between atoms: _350  and  _351
REMARK  145  A    between atoms: _354  and  _356
REMARK  146  A    between atoms: _356  and  _357
REMARK  147  A    between atoms: _356  and  _359
REMARK  148  A    between atoms: _362  and  _364
REMARK  149  A    between atoms: _364  and  _365
REMARK  150  A    between atoms: _364  and  _367
REMARK  151  A    between atoms: _367  and  _368
REMARK  152  A    between atoms: _368  and  _369
REMARK  153  A    between atoms: _369  and  _370
REMARK  154  A    between atoms: _370  and  _371
REMARK  155  A    between atoms: _375  and  _377
REMARK  156  A    between atoms: _377  and  _378
REMARK  157  A    between atoms: _377  and  _380
REMARK  158  A    between atoms: _380  and  _381
REMARK  159  A    between atoms: _381  and  _382
REMARK  160  A    between atoms: _384  and  _386
REMARK  161  A    between atoms: _386  and  _387
REMARK  162  A    between atoms: _386  and  _389
REMARK  163  A    between atoms: _389  and  _390
REMARK  164  A    between atoms: _393  and  _395
REMARK  165  A    between atoms: _395  and  _396
REMARK  166  A    between atoms: _398  and  _400
REMARK  167  A    between atoms: _400  and  _401
REMARK  168  A    between atoms: _403  and  _405
REMARK  169  A    between atoms: _405  and  _406
REMARK  170  A    between atoms: _405  and  _408
REMARK  171  A    between atoms: _408  and  _409
REMARK  172  A    between atoms: _412  and  _414
REMARK  173  A    between atoms: _414  and  _415
REMARK  174  A    between atoms: _417  and  _419
REMARK  175  A    between atoms: _419  and  _420
REMARK  176  A    between atoms: _422  and  _424
REMARK  177  A    between atoms: _424  and  _425
REMARK  178  A    between atoms: _424  and  _427
REMARK  179  A    between atoms: _427  and  _428
REMARK  180  A    between atoms: _431  and  _433
REMARK  181  A    between atoms: _433  and  _434
REMARK  182  A    between atoms: _433  and  _436
REMARK  183  A    between atoms: _439  and  _441
REMARK  184  A    between atoms: _441  and  _442
REMARK  185  A    between atoms: _441  and  _444
REMARK  186  A    between atoms: _444  and  _445
REMARK  187  A    between atoms: _449  and  _450
REMARK  188  A    between atoms: _455  and  _457
REMARK  189  A    between atoms: _457  and  _458
REMARK  190  A    between atoms: _457  and  _460
REMARK  191  A    between atoms: _460  and  _461
REMARK  192  A    between atoms: _465  and  _466
REMARK  193  A    between atoms: _471  and  _473
REMARK  194  A    between atoms: _473  and  _474
REMARK  195  A    between atoms: _473  and  _476
REMARK  196  A    between atoms: _479  and  _481
REMARK  197  A    between atoms: _481  and  _482
REMARK  198  A    between atoms: _481  and  _484
REMARK  199  A    between atoms: _484  and  _485
REMARK  200  A    between atoms: _490  and  _492
REMARK  201  A    between atoms: _492  and  _493
REMARK  202  A    between atoms: _492  and  _495
REMARK  203  A    between atoms: _495  and  _496
REMARK  204  A    between atoms: _499  and  _501
REMARK  205  A    between atoms: _501  and  _502
REMARK  206  A    between atoms: _501  and  _504
REMARK  207  A    between atoms: _504  and  _505
REMARK  208  A    between atoms: _508  and  _510
REMARK  209  A    between atoms: _510  and  _511
REMARK  210  A    between atoms: _513  and  _515
REMARK  211  A    between atoms: _515  and  _516
REMARK  212  A    between atoms: _515  and  _518
REMARK  213  A    between atoms: _518  and  _519
REMARK  214  A    between atoms: _519  and  _520
REMARK  215  A    between atoms: _520  and  _521
REMARK  216  A    between atoms: _530  and  _532
REMARK  217  A    between atoms: _532  and  _533
REMARK  218  A    between atoms: _532  and  _535
REMARK  219  A    between atoms: _535  and  _536
REMARK                            x       y       z     vdW  Elec       q    Type
REMARK                         _______ _______ _______ _____ _____    ______ ____
ROOT
ATOM      1  O   HOH     1      -8.276  24.003  22.365  0.00  0.00    +0.000 OA
ENDROOT
TORSDOF 0
REMARK  Name = ../refined-set-2016/1zpa/1zpa_pocket.pdb
REMARK  219 active torsions:
REMARK  status: ('A' for Active; 'I' for Inactive)
REMARK    1  A    between atoms: _1  and  _3
REMARK    2  A    between atoms: _3  and  _4
REMARK    3  A    between atoms: _3  and  _6
REMARK    4  A    between atoms: _6  and  _7
REMARK    5  A    between atoms: _7  and  _8
REMARK    6  A    between atoms: _8  and  _9
REMARK    7  A    between atoms: _18  and  _20
REMARK    8  A    between atoms: _20  and  _21
REMARK    9  A    between atoms: _20  and  _23
REMARK   10  A    between atoms: _23  and  _24
REMARK   11  A    between atoms: _27  and  _29
REMARK   12  A    between atoms: _29  and  _30
REMARK   13  A    between atoms: _29  and  _32
REMARK   14  A    between atoms: _32  and  _33
REMARK   15  A    between atoms: _36  and  _38
REMARK   16  A    between atoms: _38  and  _39
REMARK   17  A    between atoms: _38  and  _41
REMARK   18  A    between atoms: _41  and  _42
REMARK   19  A    between atoms: _45  and  _47
REMARK   20  A    between atoms: _47  and  _48
REMARK   21  A    between atoms: _47  and  _50
REMARK   22  A    between atoms: _50  and  _51
REMARK   23  A    between atoms: _54  and  _56
REMARK   24  A    between atoms: _56  and  _57
REMARK   25  A    between atoms: _59  and  _61
REMARK   26  A    between atoms: _61  and  _62
REMARK   27  A    between atoms: _65  and  _67
REMARK   28  A    between atoms: _67  and  _68
REMARK   29  A    between atoms: _67  and  _70
REMARK   30  A    between atoms: _70  and  _71
REMARK   31  A    between atoms: _74  and  _76
REMARK   32  A    between atoms: _76  and  _77
REMARK   33  A    between atoms: _76  and  _79
REMARK   34  A    between atoms: _79  and  _80
REMARK   35  A    between atoms: _83  and  _85
REMARK   36  A    between atoms: _85  and  _86
REMARK   37  A    between atoms: _85  and  _88
REMARK   38  A    between atoms: _88  and  _89
REMARK   39  A    between atoms: _92  and  _94
REMARK   40  A    between atoms: _94  and  _95
REMARK   41  A    between atoms: _94  and  _97
REMARK   42  A    between atoms: _100  and  _102
REMARK   43  A    between atoms: _102  and  _103
REMARK   44  A    between atoms: _102  and  _105
REMARK   45  A    between atoms: _105  and  _106
REMARK   46  A    between atoms: _106  and  _107
REMARK   47  A    between atoms: _109  and  _111
REMARK   48  A    between atoms: _111  and  _112
REMARK   49  A    between atoms: _111  and  _114
REMARK   50  A    between atoms: _114  and  _115
REMARK   51  A    between atoms: _118  and  _120
REMARK   52  A    between atoms: _120  and  _121
REMARK   53  A    between atoms: _123  and  _125
REMARK   54  A    between atoms: _125  and  _126
REMARK   55  A    between atoms: _128  and  _130
REMARK   56  A    between atoms: _130  and  _131
REMARK   57  A    between atoms: _130  and  _133
REMARK   58  A    between atoms: _133  and  _134
REMARK   59  A    between atoms: _137  and  _139
REMARK   60  A    between atoms: _139  and  _140
REMARK   61  A    between atoms: _142  and  _144
REMARK   62  A    between atoms: _144  and  _145
REMARK   63  A    between atoms: _147  and  _149
REMARK   64  A    between atoms: _149  and  _150
REMARK   65  A    between atoms: _149  and  _152
REMARK   66  A    between atoms: _152  and  _153
REMARK   67  A    between atoms: _159  and  _161
REMARK   68  A    between atoms: _161  and  _162
REMARK   69  A    between atoms: _161  and  _164
REMARK   70  A    between atoms: _164  and  _165
REMARK   71  A    between atoms: _168  and  _170
REMARK   72  A    between atoms: _170  and  _171
REMARK   73  A    between atoms: _170  and  _173
REMARK   74  A    between atoms: _173  and  _174
REMARK   75  A    between atoms: _177  and  _179
REMARK   76  A    between atoms: _179  and  _180
REMARK   77  A    between atoms: _179  and  _182
REMARK   78  A    between atoms: _182  and  _183
REMARK   79  A    between atoms: _187  and  _188
REMARK   80  A    between atoms: _193  and  _195
REMARK   81  A    between atoms: _195  and  _196
REMARK   82  A    between atoms: _195  and  _198
REMARK   83  A    between atoms: _201  and  _203
REMARK   84  A    between atoms: _203  and  _204
REMARK   85  A    between atoms: _203  and  _206
REMARK   86  A    between atoms: _206  and  _207
REMARK   87  A    between atoms: _212  and  _214
REMARK   88  A    between atoms: _214  and  _215
REMARK   89  A    between atoms: _214  and  _217
REMARK   90  A    between atoms: _217  and  _218
REMARK   91  A    between atoms: _221  and  _223
REMARK   92  A    between atoms: _223  and  _224
REMARK   93  A    between atoms: _226  and  _228
REMARK   94  A    between atoms: _228  and  _229
REMARK   95  A    between atoms: _228  and  _231
REMARK   96  A    between atoms: _231  and  _232
REMARK   97  A    between atoms: _232  and  _233
REMARK   98  A    between atoms: _233  and  _234
REMARK   99  A    between atoms: _243  and  _245
REMARK  100  A    between atoms: _245  and  _246
REMARK  101  A    between atoms: _245  and  _248
REMARK  102  A    between atoms: _248  and  _249
REMARK  103  A    between atoms: _254  and  _256
REMARK  104  A    between atoms: _256  and  _257
REMARK  105  A    between atoms: _256  and  _259
REMARK  106  A    between atoms: _259  and  _260
REMARK  107  A    between atoms: _260  and  _261
REMARK  108  A    between atoms: _261  and  _262
REMARK  109  A    between atoms: _271  and  _273
REMARK  110  A    between atoms: _273  and  _274
REMARK  111  A    between atoms: _273  and  _276
REMARK  112  A    between atoms: _276  and  _277
REMARK  113  A    between atoms: _280  and  _282
REMARK  114  A    between atoms: _282  and  _283
REMARK  115  A    between atoms: _282  and  _285
REMARK  116  A    between atoms: _285  and  _286
REMARK  117  A    between atoms: _289  and  _291
REMARK  118  A    between atoms: _291  and  _292
REMARK  119  A    between atoms: _291  and  _294
REMARK  120  A    between atoms: _294  and  _295
REMARK  121  A    between atoms: _298  and  _300
REMARK  122  A    between atoms: _300  and  _301
REMARK  123  A    between atoms: _300  and  _303
REMARK  124  A    between atoms: _303  and  _304
REMARK  125  A    between atoms: _307  and  _309
REMARK  126  A    between atoms: _309  and  _310
REMARK  127  A    between atoms: _309  and  _312
REMARK  128  A    between atoms: _312  and  _313
REMARK  129  A    between atoms: _316  and  _318
REMARK  130  A    between atoms: _318  and  _319
REMARK  131  A    between atoms: _321  and  _323
REMARK  132  A    between atoms: _323  and  _324
REMARK  133  A    between atoms: _327  and  _329
REMARK  134  A    between atoms: _329  and  _330
REMARK  135  A    between atoms: _329  and  _332
REMARK  136  A    between atoms: _332  and  _333
REMARK  137  A    between atoms: _336  and  _338
REMARK  138  A    between atoms: _338  and  _339
REMARK  139  A    between atoms: _338  and  _341
REMARK  140  A    between atoms: _341  and  _342
REMARK  141  A    between atoms: _345  and  _347
REMARK  142  A    between atoms: _347  and  _348
REMARK  143  A    between atoms: _347  and  _350
REMARK  144  A    between atoms: _350  and  _351
REMARK  145  A    between atoms: _354  and  _356
REMARK  146  A    between atoms: _356  and  _357
REMARK  147  A    between atoms: _356  and  _359
REMARK  148  A    between atoms: _362  and  _364
REMARK  149  A    between atoms: _364  and  _365
REMARK  150  A    between atoms: _364  and  _367
REMARK  151  A    between atoms: _367  and  _368
REMARK  152  A    between atoms: _368  and  _369
REMARK  153  A    between atoms: _369  and  _370
REMARK  154  A    between atoms: _370  and  _371
REMARK  155  A    between atoms: _375  and  _377
REMARK  156  A    between atoms: _377  and  _378
REMARK  157  A    between atoms: _377  and  _380
REMARK  158  A    between atoms: _380  and  _381
REMARK  159  A    between atoms: _381  and  _382
REMARK  160  A    between atoms: _384  and  _386
REMARK  161  A    between atoms: _386  and  _387
REMARK  162  A    between atoms: _386  and  _389
REMARK  163  A    between atoms: _389  and  _390
REMARK  164  A    between atoms: _393  and  _395
REMARK  165  A    between atoms: _395  and  _396
REMARK  166  A    between atoms: _398  and  _400
REMARK  167  A    between atoms: _400  and  _401
REMARK  168  A    between atoms: _403  and  _405
REMARK  169  A    between atoms: _405  and  _406
REMARK  170  A    between atoms: _405  and  _408
REMARK  171  A    between atoms: _408  and  _409
REMARK  172  A    between atoms: _412  and  _414
REMARK  173  A    between atoms: _414  and  _415
REMARK  174  A    between atoms: _417  and  _419
REMARK  175  A    between atoms: _419  and  _420
REMARK  176  A    between atoms: _422  and  _424
REMARK  177  A    between atoms: _424  and  _425
REMARK  178  A    between atoms: _424  and  _427
REMARK  179  A    between atoms: _427  and  _428
REMARK  180  A    between atoms: _431  and  _433
REMARK  181  A    between atoms: _433  and  _434
REMARK  182  A    between atoms: _433  and  _436
REMARK  183  A    between atoms: _439  and  _441
REMARK  184  A    between atoms: _441  and  _442
REMARK  185  A    between atoms: _441  and  _444
REMARK  186  A    between atoms: _444  and  _445
REMARK  187  A    between atoms: _449  and  _450
REMARK  188  A    between atoms: _455  and  _457
REMARK  189  A    between atoms: _457  and  _458
REMARK  190  A    between atoms: _457  and  _460
REMARK  191  A    between atoms: _460  and  _461
REMARK  192  A    between atoms: _465  and  _466
REMARK  193  A    between atoms: _471  and  _473
REMARK  194  A    between atoms: _473  and  _474
REMARK  195  A    between atoms: _473  and  _476
REMARK  196  A    between atoms: _479  and  _481
REMARK  197  A    between atoms: _481  and  _482
REMARK  198  A    between atoms: _481  and  _484
REMARK  199  A    between atoms: _484  and  _485
REMARK  200  A    between atoms: _490  and  _492
REMARK  201  A    between atoms: _492  and  _493
REMARK  202  A    between atoms: _492  and  _495
REMARK  203  A    between atoms: _495  and  _496
REMARK  204  A    between atoms: _499  and  _501
REMARK  205  A    between atoms: _501  and  _502
REMARK  206  A    between atoms: _501  and  _504
REMARK  207  A    between atoms: _504  and  _505
REMARK  208  A    between atoms: _508  and  _510
REMARK  209  A    between atoms: _510  and  _511
REMARK  210  A    between atoms: _513  and  _515
REMARK  211  A    between atoms: _515  and  _516
REMARK  212  A    between atoms: _515  and  _518
REMARK  213  A    between atoms: _518  and  _519
REMARK  214  A    between atoms: _519  and  _520
REMARK  215  A    between atoms: _520  and  _521
REMARK  216  A    between atoms: _530  and  _532
REMARK  217  A    between atoms: _532  and  _533
REMARK  218  A    between atoms: _532  and  _535
REMARK  219  A    between atoms: _535  and  _536
REMARK                            x       y       z     vdW  Elec       q    Type
REMARK                         _______ _______ _______ _____ _____    ______ ____
ROOT
ATOM      1  O   HOH     1     -12.535  17.491  14.146  0.00  0.00    +0.000 OA
ENDROOT
TORSDOF 0
REMARK  Name = ../refined-set-2016/1zpa/1zpa_pocket.pdb
REMARK  219 active torsions:
REMARK  status: ('A' for Active; 'I' for Inactive)
REMARK    1  A    between atoms: _1  and  _3
REMARK    2  A    between atoms: _3  and  _4
REMARK    3  A    between atoms: _3  and  _6
REMARK    4  A    between atoms: _6  and  _7
REMARK    5  A    between atoms: _7  and  _8
REMARK    6  A    between atoms: _8  and  _9
REMARK    7  A    between atoms: _18  and  _20
REMARK    8  A    between atoms: _20  and  _21
REMARK    9  A    between atoms: _20  and  _23
REMARK   10  A    between atoms: _23  and  _24
REMARK   11  A    between atoms: _27  and  _29
REMARK   12  A    between atoms: _29  and  _30
REMARK   13  A    between atoms: _29  and  _32
REMARK   14  A    between atoms: _32  and  _33
REMARK   15  A    between atoms: _36  and  _38
REMARK   16  A    between atoms: _38  and  _39
REMARK   17  A    between atoms: _38  and  _41
REMARK   18  A    between atoms: _41  and  _42
REMARK   19  A    between atoms: _45  and  _47
REMARK   20  A    between atoms: _47  and  _48
REMARK   21  A    between atoms: _47  and  _50
REMARK   22  A    between atoms: _50  and  _51
REMARK   23  A    between atoms: _54  and  _56
REMARK   24  A    between atoms: _56  and  _57
REMARK   25  A    between atoms: _59  and  _61
REMARK   26  A    between atoms: _61  and  _62
REMARK   27  A    between atoms: _65  and  _67
REMARK   28  A    between atoms: _67  and  _68
REMARK   29  A    between atoms: _67  and  _70
REMARK   30  A    between atoms: _70  and  _71
REMARK   31  A    between atoms: _74  and  _76
REMARK   32  A    between atoms: _76  and  _77
REMARK   33  A    between atoms: _76  and  _79
REMARK   34  A    between atoms: _79  and  _80
REMARK   35  A    between atoms: _83  and  _85
REMARK   36  A    between atoms: _85  and  _86
REMARK   37  A    between atoms: _85  and  _88
REMARK   38  A    between atoms: _88  and  _89
REMARK   39  A    between atoms: _92  and  _94
REMARK   40  A    between atoms: _94  and  _95
REMARK   41  A    between atoms: _94  and  _97
REMARK   42  A    between atoms: _100  and  _102
REMARK   43  A    between atoms: _102  and  _103
REMARK   44  A    between atoms: _102  and  _105
REMARK   45  A    between atoms: _105  and  _106
REMARK   46  A    between atoms: _106  and  _107
REMARK   47  A    between atoms: _109  and  _111
REMARK   48  A    between atoms: _111  and  _112
REMARK   49  A    between atoms: _111  and  _114
REMARK   50  A    between atoms: _114  and  _115
REMARK   51  A    between atoms: _118  and  _120
REMARK   52  A    between atoms: _120  and  _121
REMARK   53  A    between atoms: _123  and  _125
REMARK   54  A    between atoms: _125  and  _126
REMARK   55  A    between atoms: _128  and  _130
REMARK   56  A    between atoms: _130  and  _131
REMARK   57  A    between atoms: _130  and  _133
REMARK   58  A    between atoms: _133  and  _134
REMARK   59  A    between atoms: _137  and  _139
REMARK   60  A    between atoms: _139  and  _140
REMARK   61  A    between atoms: _142  and  _144
REMARK   62  A    between atoms: _144  and  _145
REMARK   63  A    between atoms: _147  and  _149
REMARK   64  A    between atoms: _149  and  _150
REMARK   65  A    between atoms: _149  and  _152
REMARK   66  A    between atoms: _152  and  _153
REMARK   67  A    between atoms: _159  and  _161
REMARK   68  A    between atoms: _161  and  _162
REMARK   69  A    between atoms: _161  and  _164
REMARK   70  A    between atoms: _164  and  _165
REMARK   71  A    between atoms: _168  and  _170
REMARK   72  A    between atoms: _170  and  _171
REMARK   73  A    between atoms: _170  and  _173
REMARK   74  A    between atoms: _173  and  _174
REMARK   75  A    between atoms: _177  and  _179
REMARK   76  A    between atoms: _179  and  _180
REMARK   77  A    between atoms: _179  and  _182
REMARK   78  A    between atoms: _182  and  _183
REMARK   79  A    between atoms: _187  and  _188
REMARK   80  A    between atoms: _193  and  _195
REMARK   81  A    between atoms: _195  and  _196
REMARK   82  A    between atoms: _195  and  _198
REMARK   83  A    between atoms: _201  and  _203
REMARK   84  A    between atoms: _203  and  _204
REMARK   85  A    between atoms: _203  and  _206
REMARK   86  A    between atoms: _206  and  _207
REMARK   87  A    between atoms: _212  and  _214
REMARK   88  A    between atoms: _214  and  _215
REMARK   89  A    between atoms: _214  and  _217
REMARK   90  A    between atoms: _217  and  _218
REMARK   91  A    between atoms: _221  and  _223
REMARK   92  A    between atoms: _223  and  _224
REMARK   93  A    between atoms: _226  and  _228
REMARK   94  A    between atoms: _228  and  _229
REMARK   95  A    between atoms: _228  and  _231
REMARK   96  A    between atoms: _231  and  _232
REMARK   97  A    between atoms: _232  and  _233
REMARK   98  A    between atoms: _233  and  _234
REMARK   99  A    between atoms: _243  and  _245
REMARK  100  A    between atoms: _245  and  _246
REMARK  101  A    between atoms: _245  and  _248
REMARK  102  A    between atoms: _248  and  _249
REMARK  103  A    between atoms: _254  and  _256
REMARK  104  A    between atoms: _256  and  _257
REMARK  105  A    between atoms: _256  and  _259
REMARK  106  A    between atoms: _259  and  _260
REMARK  107  A    between atoms: _260  and  _261
REMARK  108  A    between atoms: _261  and  _262
REMARK  109  A    between atoms: _271  and  _273
REMARK  110  A    between atoms: _273  and  _274
REMARK  111  A    between atoms: _273  and  _276
REMARK  112  A    between atoms: _276  and  _277
REMARK  113  A    between atoms: _280  and  _282
REMARK  114  A    between atoms: _282  and  _283
REMARK  115  A    between atoms: _282  and  _285
REMARK  116  A    between atoms: _285  and  _286
REMARK  117  A    between atoms: _289  and  _291
REMARK  118  A    between atoms: _291  and  _292
REMARK  119  A    between atoms: _291  and  _294
REMARK  120  A    between atoms: _294  and  _295
REMARK  121  A    between atoms: _298  and  _300
REMARK  122  A    between atoms: _300  and  _301
REMARK  123  A    between atoms: _300  and  _303
REMARK  124  A    between atoms: _303  and  _304
REMARK  125  A    between atoms: _307  and  _309
REMARK  126  A    between atoms: _309  and  _310
REMARK  127  A    between atoms: _309  and  _312
REMARK  128  A    between atoms: _312  and  _313
REMARK  129  A    between atoms: _316  and  _318
REMARK  130  A    between atoms: _318  and  _319
REMARK  131  A    between atoms: _321  and  _323
REMARK  132  A    between atoms: _323  and  _324
REMARK  133  A    between atoms: _327  and  _329
REMARK  134  A    between atoms: _329  and  _330
REMARK  135  A    between atoms: _329  and  _332
REMARK  136  A    between atoms: _332  and  _333
REMARK  137  A    between atoms: _336  and  _338
REMARK  138  A    between atoms: _338  and  _339
REMARK  139  A    between atoms: _338  and  _341
REMARK  140  A    between atoms: _341  and  _342
REMARK  141  A    between atoms: _345  and  _347
REMARK  142  A    between atoms: _347  and  _348
REMARK  143  A    between atoms: _347  and  _350
REMARK  144  A    between atoms: _350  and  _351
REMARK  145  A    between atoms: _354  and  _356
REMARK  146  A    between atoms: _356  and  _357
REMARK  147  A    between atoms: _356  and  _359
REMARK  148  A    between atoms: _362  and  _364
REMARK  149  A    between atoms: _364  and  _365
REMARK  150  A    between atoms: _364  and  _367
REMARK  151  A    between atoms: _367  and  _368
REMARK  152  A    between atoms: _368  and  _369
REMARK  153  A    between atoms: _369  and  _370
REMARK  154  A    between atoms: _370  and  _371
REMARK  155  A    between atoms: _375  and  _377
REMARK  156  A    between atoms: _377  and  _378
REMARK  157  A    between atoms: _377  and  _380
REMARK  158  A    between atoms: _380  and  _381
REMARK  159  A    between atoms: _381  and  _382
REMARK  160  A    between atoms: _384  and  _386
REMARK  161  A    between atoms: _386  and  _387
REMARK  162  A    between atoms: _386  and  _389
REMARK  163  A    between atoms: _389  and  _390
REMARK  164  A    between atoms: _393  and  _395
REMARK  165  A    between atoms: _395  and  _396
REMARK  166  A    between atoms: _398  and  _400
REMARK  167  A    between atoms: _400  and  _401
REMARK  168  A    between atoms: _403  and  _405
REMARK  169  A    between atoms: _405  and  _406
REMARK  170  A    between atoms: _405  and  _408
REMARK  171  A    between atoms: _408  and  _409
REMARK  172  A    between atoms: _412  and  _414
REMARK  173  A    between atoms: _414  and  _415
REMARK  174  A    between atoms: _417  and  _419
REMARK  175  A    between atoms: _419  and  _420
REMARK  176  A    between atoms: _422  and  _424
REMARK  177  A    between atoms: _424  and  _425
REMARK  178  A    between atoms: _424  and  _427
REMARK  179  A    between atoms: _427  and  _428
REMARK  180  A    between atoms: _431  and  _433
REMARK  181  A    between atoms: _433  and  _434
REMARK  182  A    between atoms: _433  and  _436
REMARK  183  A    between atoms: _439  and  _441
REMARK  184  A    between atoms: _441  and  _442
REMARK  185  A    between atoms: _441  and  _444
REMARK  186  A    between atoms: _444  and  _445
REMARK  187  A    between atoms: _449  and  _450
REMARK  188  A    between atoms: _455  and  _457
REMARK  189  A    between atoms: _457  and  _458
REMARK  190  A    between atoms: _457  and  _460
REMARK  191  A    between atoms: _460  and  _461
REMARK  192  A    between atoms: _465  and  _466
REMARK  193  A    between atoms: _471  and  _473
REMARK  194  A    between atoms: _473  and  _474
REMARK  195  A    between atoms: _473  and  _476
REMARK  196  A    between atoms: _479  and  _481
REMARK  197  A    between atoms: _481  and  _482
REMARK  198  A    between atoms: _481  and  _484
REMARK  199  A    between atoms: _484  and  _485
REMARK  200  A    between atoms: _490  and  _492
REMARK  201  A    between atoms: _492  and  _493
REMARK  202  A    between atoms: _492  and  _495
REMARK  203  A    between atoms: _495  and  _496
REMARK  204  A    between atoms: _499  and  _501
REMARK  205  A    between atoms: _501  and  _502
REMARK  206  A    between atoms: _501  and  _504
REMARK  207  A    between atoms: _504  and  _505
REMARK  208  A    between atoms: _508  and  _510
REMARK  209  A    between atoms: _510  and  _511
REMARK  210  A    between atoms: _513  and  _515
REMARK  211  A    between atoms: _515  and  _516
REMARK  212  A    between atoms: _515  and  _518
REMARK  213  A    between atoms: _518  and  _519
REMARK  214  A    between atoms: _519  and  _520
REMARK  215  A    between atoms: _520  and  _521
REMARK  216  A    between atoms: _530  and  _532
REMARK  217  A    between atoms: _532  and  _533
REMARK  218  A    between atoms: _532  and  _535
REMARK  219  A    between atoms: _535  and  _536
REMARK                            x       y       z     vdW  Elec       q    Type
REMARK                         _______ _______ _______ _____ _____    ______ ____
ROOT
ATOM      1  O   HOH     1      -0.271  12.746  24.743  0.00  0.00    +0.000 OA
ENDROOT
TORSDOF 0
REMARK  Name = ../refined-set-2016/1zpa/1zpa_pocket.pdb
REMARK  219 active torsions:
REMARK  status: ('A' for Active; 'I' for Inactive)
REMARK    1  A    between atoms: _1  and  _3
REMARK    2  A    between atoms: _3  and  _4
REMARK    3  A    between atoms: _3  and  _6
REMARK    4  A    between atoms: _6  and  _7
REMARK    5  A    between atoms: _7  and  _8
REMARK    6  A    between atoms: _8  and  _9
REMARK    7  A    between atoms: _18  and  _20
REMARK    8  A    between atoms: _20  and  _21
REMARK    9  A    between atoms: _20  and  _23
REMARK   10  A    between atoms: _23  and  _24
REMARK   11  A    between atoms: _27  and  _29
REMARK   12  A    between atoms: _29  and  _30
REMARK   13  A    between atoms: _29  and  _32
REMARK   14  A    between atoms: _32  and  _33
REMARK   15  A    between atoms: _36  and  _38
REMARK   16  A    between atoms: _38  and  _39
REMARK   17  A    between atoms: _38  and  _41
REMARK   18  A    between atoms: _41  and  _42
REMARK   19  A    between atoms: _45  and  _47
REMARK   20  A    between atoms: _47  and  _48
REMARK   21  A    between atoms: _47  and  _50
REMARK   22  A    between atoms: _50  and  _51
REMARK   23  A    between atoms: _54  and  _56
REMARK   24  A    between atoms: _56  and  _57
REMARK   25  A    between atoms: _59  and  _61
REMARK   26  A    between atoms: _61  and  _62
REMARK   27  A    between atoms: _65  and  _67
REMARK   28  A    between atoms: _67  and  _68
REMARK   29  A    between atoms: _67  and  _70
REMARK   30  A    between atoms: _70  and  _71
REMARK   31  A    between atoms: _74  and  _76
REMARK   32  A    between atoms: _76  and  _77
REMARK   33  A    between atoms: _76  and  _79
REMARK   34  A    between atoms: _79  and  _80
REMARK   35  A    between atoms: _83  and  _85
REMARK   36  A    between atoms: _85  and  _86
REMARK   37  A    between atoms: _85  and  _88
REMARK   38  A    between atoms: _88  and  _89
REMARK   39  A    between atoms: _92  and  _94
REMARK   40  A    between atoms: _94  and  _95
REMARK   41  A    between atoms: _94  and  _97
REMARK   42  A    between atoms: _100  and  _102
REMARK   43  A    between atoms: _102  and  _103
REMARK   44  A    between atoms: _102  and  _105
REMARK   45  A    between atoms: _105  and  _106
REMARK   46  A    between atoms: _106  and  _107
REMARK   47  A    between atoms: _109  and  _111
REMARK   48  A    between atoms: _111  and  _112
REMARK   49  A    between atoms: _111  and  _114
REMARK   50  A    between atoms: _114  and  _115
REMARK   51  A    between atoms: _118  and  _120
REMARK   52  A    between atoms: _120  and  _121
REMARK   53  A    between atoms: _123  and  _125
REMARK   54  A    between atoms: _125  and  _126
REMARK   55  A    between atoms: _128  and  _130
REMARK   56  A    between atoms: _130  and  _131
REMARK   57  A    between atoms: _130  and  _133
REMARK   58  A    between atoms: _133  and  _134
REMARK   59  A    between atoms: _137  and  _139
REMARK   60  A    between atoms: _139  and  _140
REMARK   61  A    between atoms: _142  and  _144
REMARK   62  A    between atoms: _144  and  _145
REMARK   63  A    between atoms: _147  and  _149
REMARK   64  A    between atoms: _149  and  _150
REMARK   65  A    between atoms: _149  and  _152
REMARK   66  A    between atoms: _152  and  _153
REMARK   67  A    between atoms: _159  and  _161
REMARK   68  A    between atoms: _161  and  _162
REMARK   69  A    between atoms: _161  and  _164
REMARK   70  A    between atoms: _164  and  _165
REMARK   71  A    between atoms: _168  and  _170
REMARK   72  A    between atoms: _170  and  _171
REMARK   73  A    between atoms: _170  and  _173
REMARK   74  A    between atoms: _173  and  _174
REMARK   75  A    between atoms: _177  and  _179
REMARK   76  A    between atoms: _179  and  _180
REMARK   77  A    between atoms: _179  and  _182
REMARK   78  A    between atoms: _182  and  _183
REMARK   79  A    between atoms: _187  and  _188
REMARK   80  A    between atoms: _193  and  _195
REMARK   81  A    between atoms: _195  and  _196
REMARK   82  A    between atoms: _195  and  _198
REMARK   83  A    between atoms: _201  and  _203
REMARK   84  A    between atoms: _203  and  _204
REMARK   85  A    between atoms: _203  and  _206
REMARK   86  A    between atoms: _206  and  _207
REMARK   87  A    between atoms: _212  and  _214
REMARK   88  A    between atoms: _214  and  _215
REMARK   89  A    between atoms: _214  and  _217
REMARK   90  A    between atoms: _217  and  _218
REMARK   91  A    between atoms: _221  and  _223
REMARK   92  A    between atoms: _223  and  _224
REMARK   93  A    between atoms: _226  and  _228
REMARK   94  A    between atoms: _228  and  _229
REMARK   95  A    between atoms: _228  and  _231
REMARK   96  A    between atoms: _231  and  _232
REMARK   97  A    between atoms: _232  and  _233
REMARK   98  A    between atoms: _233  and  _234
REMARK   99  A    between atoms: _243  and  _245
REMARK  100  A    between atoms: _245  and  _246
REMARK  101  A    between atoms: _245  and  _248
REMARK  102  A    between atoms: _248  and  _249
REMARK  103  A    between atoms: _254  and  _256
REMARK  104  A    between atoms: _256  and  _257
REMARK  105  A    between atoms: _256  and  _259
REMARK  106  A    between atoms: _259  and  _260
REMARK  107  A    between atoms: _260  and  _261
REMARK  108  A    between atoms: _261  and  _262
REMARK  109  A    between atoms: _271  and  _273
REMARK  110  A    between atoms: _273  and  _274
REMARK  111  A    between atoms: _273  and  _276
REMARK  112  A    between atoms: _276  and  _277
REMARK  113  A    between atoms: _280  and  _282
REMARK  114  A    between atoms: _282  and  _283
REMARK  115  A    between atoms: _282  and  _285
REMARK  116  A    between atoms: _285  and  _286
REMARK  117  A    between atoms: _289  and  _291
REMARK  118  A    between atoms: _291  and  _292
REMARK  119  A    between atoms: _291  and  _294
REMARK  120  A    between atoms: _294  and  _295
REMARK  121  A    between atoms: _298  and  _300
REMARK  122  A    between atoms: _300  and  _301
REMARK  123  A    between atoms: _300  and  _303
REMARK  124  A    between atoms: _303  and  _304
REMARK  125  A    between atoms: _307  and  _309
REMARK  126  A    between atoms: _309  and  _310
REMARK  127  A    between atoms: _309  and  _312
REMARK  128  A    between atoms: _312  and  _313
REMARK  129  A    between atoms: _316  and  _318
REMARK  130  A    between atoms: _318  and  _319
REMARK  131  A    between atoms: _321  and  _323
REMARK  132  A    between atoms: _323  and  _324
REMARK  133  A    between atoms: _327  and  _329
REMARK  134  A    between atoms: _329  and  _330
REMARK  135  A    between atoms: _329  and  _332
REMARK  136  A    between atoms: _332  and  _333
REMARK  137  A    between atoms: _336  and  _338
REMARK  138  A    between atoms: _338  and  _339
REMARK  139  A    between atoms: _338  and  _341
REMARK  140  A    between atoms: _341  and  _342
REMARK  141  A    between atoms: _345  and  _347
REMARK  142  A    between atoms: _347  and  _348
REMARK  143  A    between atoms: _347  and  _350
REMARK  144  A    between atoms: _350  and  _351
REMARK  145  A    between atoms: _354  and  _356
REMARK  146  A    between atoms: _356  and  _357
REMARK  147  A    between atoms: _356  and  _359
REMARK  148  A    between atoms: _362  and  _364
REMARK  149  A    between atoms: _364  and  _365
REMARK  150  A    between atoms: _364  and  _367
REMARK  151  A    between atoms: _367  and  _368
REMARK  152  A    between atoms: _368  and  _369
REMARK  153  A    between atoms: _369  and  _370
REMARK  154  A    between atoms: _370  and  _371
REMARK  155  A    between atoms: _375  and  _377
REMARK  156  A    between atoms: _377  and  _378
REMARK  157  A    between atoms: _377  and  _380
REMARK  158  A    between atoms: _380  and  _381
REMARK  159  A    between atoms: _381  and  _382
REMARK  160  A    between atoms: _384  and  _386
REMARK  161  A    between atoms: _386  and  _387
REMARK  162  A    between atoms: _386  and  _389
REMARK  163  A    between atoms: _389  and  _390
REMARK  164  A    between atoms: _393  and  _395
REMARK  165  A    between atoms: _395  and  _396
REMARK  166  A    between atoms: _398  and  _400
REMARK  167  A    between atoms: _400  and  _401
REMARK  168  A    between atoms: _403  and  _405
REMARK  169  A    between atoms: _405  and  _406
REMARK  170  A    between atoms: _405  and  _408
REMARK  171  A    between atoms: _408  and  _409
REMARK  172  A    between atoms: _412  and  _414
REMARK  173  A    between atoms: _414  and  _415
REMARK  174  A    between atoms: _417  and  _419
REMARK  175  A    between atoms: _419  and  _420
REMARK  176  A    between atoms: _422  and  _424
REMARK  177  A    between atoms: _424  and  _425
REMARK  178  A    between atoms: _424  and  _427
REMARK  179  A    between atoms: _427  and  _428
REMARK  180  A    between atoms: _431  and  _433
REMARK  181  A    between atoms: _433  and  _434
REMARK  182  A    between atoms: _433  and  _436
REMARK  183  A    between atoms: _439  and  _441
REMARK  184  A    between atoms: _441  and  _442
REMARK  185  A    between atoms: _441  and  _444
REMARK  186  A    between atoms: _444  and  _445
REMARK  187  A    between atoms: _449  and  _450
REMARK  188  A    between atoms: _455  and  _457
REMARK  189  A    between atoms: _457  and  _458
REMARK  190  A    between atoms: _457  and  _460
REMARK  191  A    between atoms: _460  and  _461
REMARK  192  A    between atoms: _465  and  _466
REMARK  193  A    between atoms: _471  and  _473
REMARK  194  A    between atoms: _473  and  _474
REMARK  195  A    between atoms: _473  and  _476
REMARK  196  A    between atoms: _479  and  _481
REMARK  197  A    between atoms: _481  and  _482
REMARK  198  A    between atoms: _481  and  _484
REMARK  199  A    between atoms: _484  and  _485
REMARK  200  A    between atoms: _490  and  _492
REMARK  201  A    between atoms: _492  and  _493
REMARK  202  A    between atoms: _492  and  _495
REMARK  203  A    between atoms: _495  and  _496
REMARK  204  A    between atoms: _499  and  _501
REMARK  205  A    between atoms: _501  and  _502
REMARK  206  A    between atoms: _501  and  _504
REMARK  207  A    between atoms: _504  and  _505
REMARK  208  A    between atoms: _508  and  _510
REMARK  209  A    between atoms: _510  and  _511
REMARK  210  A    between atoms: _513  and  _515
REMARK  211  A    between atoms: _515  and  _516
REMARK  212  A    between atoms: _515  and  _518
REMARK  213  A    between atoms: _518  and  _519
REMARK  214  A    between atoms: _519  and  _520
REMARK  215  A    between atoms: _520  and  _521
REMARK  216  A    between atoms: _530  and  _532
REMARK  217  A    between atoms: _532  and  _533
REMARK  218  A    between atoms: _532  and  _535
REMARK  219  A    between atoms: _535  and  _536
REMARK                            x       y       z     vdW  Elec       q    Type
REMARK                         _______ _______ _______ _____ _____    ______ ____
ROOT
ATOM      1  O   HOH     1     -20.706  11.898  25.196  0.00  0.00    +0.000 OA
ENDROOT
TORSDOF 0
REMARK  Name = ../refined-set-2016/1zpa/1zpa_pocket.pdb
REMARK  219 active torsions:
REMARK  status: ('A' for Active; 'I' for Inactive)
REMARK    1  A    between atoms: _1  and  _3
REMARK    2  A    between atoms: _3  and  _4
REMARK    3  A    between atoms: _3  and  _6
REMARK    4  A    between atoms: _6  and  _7
REMARK    5  A    between atoms: _7  and  _8
REMARK    6  A    between atoms: _8  and  _9
REMARK    7  A    between atoms: _18  and  _20
REMARK    8  A    between atoms: _20  and  _21
REMARK    9  A    between atoms: _20  and  _23
REMARK   10  A    between atoms: _23  and  _24
REMARK   11  A    between atoms: _27  and  _29
REMARK   12  A    between atoms: _29  and  _30
REMARK   13  A    between atoms: _29  and  _32
REMARK   14  A    between atoms: _32  and  _33
REMARK   15  A    between atoms: _36  and  _38
REMARK   16  A    between atoms: _38  and  _39
REMARK   17  A    between atoms: _38  and  _41
REMARK   18  A    between atoms: _41  and  _42
REMARK   19  A    between atoms: _45  and  _47
REMARK   20  A    between atoms: _47  and  _48
REMARK   21  A    between atoms: _47  and  _50
REMARK   22  A    between atoms: _50  and  _51
REMARK   23  A    between atoms: _54  and  _56
REMARK   24  A    between atoms: _56  and  _57
REMARK   25  A    between atoms: _59  and  _61
REMARK   26  A    between atoms: _61  and  _62
REMARK   27  A    between atoms: _65  and  _67
REMARK   28  A    between atoms: _67  and  _68
REMARK   29  A    between atoms: _67  and  _70
REMARK   30  A    between atoms: _70  and  _71
REMARK   31  A    between atoms: _74  and  _76
REMARK   32  A    between atoms: _76  and  _77
REMARK   33  A    between atoms: _76  and  _79
REMARK   34  A    between atoms: _79  and  _80
REMARK   35  A    between atoms: _83  and  _85
REMARK   36  A    between atoms: _85  and  _86
REMARK   37  A    between atoms: _85  and  _88
REMARK   38  A    between atoms: _88  and  _89
REMARK   39  A    between atoms: _92  and  _94
REMARK   40  A    between atoms: _94  and  _95
REMARK   41  A    between atoms: _94  and  _97
REMARK   42  A    between atoms: _100  and  _102
REMARK   43  A    between atoms: _102  and  _103
REMARK   44  A    between atoms: _102  and  _105
REMARK   45  A    between atoms: _105  and  _106
REMARK   46  A    between atoms: _106  and  _107
REMARK   47  A    between atoms: _109  and  _111
REMARK   48  A    between atoms: _111  and  _112
REMARK   49  A    between atoms: _111  and  _114
REMARK   50  A    between atoms: _114  and  _115
REMARK   51  A    between atoms: _118  and  _120
REMARK   52  A    between atoms: _120  and  _121
REMARK   53  A    between atoms: _123  and  _125
REMARK   54  A    between atoms: _125  and  _126
REMARK   55  A    between atoms: _128  and  _130
REMARK   56  A    between atoms: _130  and  _131
REMARK   57  A    between atoms: _130  and  _133
REMARK   58  A    between atoms: _133  and  _134
REMARK   59  A    between atoms: _137  and  _139
REMARK   60  A    between atoms: _139  and  _140
REMARK   61  A    between atoms: _142  and  _144
REMARK   62  A    between atoms: _144  and  _145
REMARK   63  A    between atoms: _147  and  _149
REMARK   64  A    between atoms: _149  and  _150
REMARK   65  A    between atoms: _149  and  _152
REMARK   66  A    between atoms: _152  and  _153
REMARK   67  A    between atoms: _159  and  _161
REMARK   68  A    between atoms: _161  and  _162
REMARK   69  A    between atoms: _161  and  _164
REMARK   70  A    between atoms: _164  and  _165
REMARK   71  A    between atoms: _168  and  _170
REMARK   72  A    between atoms: _170  and  _171
REMARK   73  A    between atoms: _170  and  _173
REMARK   74  A    between atoms: _173  and  _174
REMARK   75  A    between atoms: _177  and  _179
REMARK   76  A    between atoms: _179  and  _180
REMARK   77  A    between atoms: _179  and  _182
REMARK   78  A    between atoms: _182  and  _183
REMARK   79  A    between atoms: _187  and  _188
REMARK   80  A    between atoms: _193  and  _195
REMARK   81  A    between atoms: _195  and  _196
REMARK   82  A    between atoms: _195  and  _198
REMARK   83  A    between atoms: _201  and  _203
REMARK   84  A    between atoms: _203  and  _204
REMARK   85  A    between atoms: _203  and  _206
REMARK   86  A    between atoms: _206  and  _207
REMARK   87  A    between atoms: _212  and  _214
REMARK   88  A    between atoms: _214  and  _215
REMARK   89  A    between atoms: _214  and  _217
REMARK   90  A    between atoms: _217  and  _218
REMARK   91  A    between atoms: _221  and  _223
REMARK   92  A    between atoms: _223  and  _224
REMARK   93  A    between atoms: _226  and  _228
REMARK   94  A    between atoms: _228  and  _229
REMARK   95  A    between atoms: _228  and  _231
REMARK   96  A    between atoms: _231  and  _232
REMARK   97  A    between atoms: _232  and  _233
REMARK   98  A    between atoms: _233  and  _234
REMARK   99  A    between atoms: _243  and  _245
REMARK  100  A    between atoms: _245  and  _246
REMARK  101  A    between atoms: _245  and  _248
REMARK  102  A    between atoms: _248  and  _249
REMARK  103  A    between atoms: _254  and  _256
REMARK  104  A    between atoms: _256  and  _257
REMARK  105  A    between atoms: _256  and  _259
REMARK  106  A    between atoms: _259  and  _260
REMARK  107  A    between atoms: _260  and  _261
REMARK  108  A    between atoms: _261  and  _262
REMARK  109  A    between atoms: _271  and  _273
REMARK  110  A    between atoms: _273  and  _274
REMARK  111  A    between atoms: _273  and  _276
REMARK  112  A    between atoms: _276  and  _277
REMARK  113  A    between atoms: _280  and  _282
REMARK  114  A    between atoms: _282  and  _283
REMARK  115  A    between atoms: _282  and  _285
REMARK  116  A    between atoms: _285  and  _286
REMARK  117  A    between atoms: _289  and  _291
REMARK  118  A    between atoms: _291  and  _292
REMARK  119  A    between atoms: _291  and  _294
REMARK  120  A    between atoms: _294  and  _295
REMARK  121  A    between atoms: _298  and  _300
REMARK  122  A    between atoms: _300  and  _301
REMARK  123  A    between atoms: _300  and  _303
REMARK  124  A    between atoms: _303  and  _304
REMARK  125  A    between atoms: _307  and  _309
REMARK  126  A    between atoms: _309  and  _310
REMARK  127  A    between atoms: _309  and  _312
REMARK  128  A    between atoms: _312  and  _313
REMARK  129  A    between atoms: _316  and  _318
REMARK  130  A    between atoms: _318  and  _319
REMARK  131  A    between atoms: _321  and  _323
REMARK  132  A    between atoms: _323  and  _324
REMARK  133  A    between atoms: _327  and  _329
REMARK  134  A    between atoms: _329  and  _330
REMARK  135  A    between atoms: _329  and  _332
REMARK  136  A    between atoms: _332  and  _333
REMARK  137  A    between atoms: _336  and  _338
REMARK  138  A    between atoms: _338  and  _339
REMARK  139  A    between atoms: _338  and  _341
REMARK  140  A    between atoms: _341  and  _342
REMARK  141  A    between atoms: _345  and  _347
REMARK  142  A    between atoms: _347  and  _348
REMARK  143  A    between atoms: _347  and  _350
REMARK  144  A    between atoms: _350  and  _351
REMARK  145  A    between atoms: _354  and  _356
REMARK  146  A    between atoms: _356  and  _357
REMARK  147  A    between atoms: _356  and  _359
REMARK  148  A    between atoms: _362  and  _364
REMARK  149  A    between atoms: _364  and  _365
REMARK  150  A    between atoms: _364  and  _367
REMARK  151  A    between atoms: _367  and  _368
REMARK  152  A    between atoms: _368  and  _369
REMARK  153  A    between atoms: _369  and  _370
REMARK  154  A    between atoms: _370  and  _371
REMARK  155  A    between atoms: _375  and  _377
REMARK  156  A    between atoms: _377  and  _378
REMARK  157  A    between atoms: _377  and  _380
REMARK  158  A    between atoms: _380  and  _381
REMARK  159  A    between atoms: _381  and  _382
REMARK  160  A    between atoms: _384  and  _386
REMARK  161  A    between atoms: _386  and  _387
REMARK  162  A    between atoms: _386  and  _389
REMARK  163  A    between atoms: _389  and  _390
REMARK  164  A    between atoms: _393  and  _395
REMARK  165  A    between atoms: _395  and  _396
REMARK  166  A    between atoms: _398  and  _400
REMARK  167  A    between atoms: _400  and  _401
REMARK  168  A    between atoms: _403  and  _405
REMARK  169  A    between atoms: _405  and  _406
REMARK  170  A    between atoms: _405  and  _408
REMARK  171  A    between atoms: _408  and  _409
REMARK  172  A    between atoms: _412  and  _414
REMARK  173  A    between atoms: _414  and  _415
REMARK  174  A    between atoms: _417  and  _419
REMARK  175  A    between atoms: _419  and  _420
REMARK  176  A    between atoms: _422  and  _424
REMARK  177  A    between atoms: _424  and  _425
REMARK  178  A    between atoms: _424  and  _427
REMARK  179  A    between atoms: _427  and  _428
REMARK  180  A    between atoms: _431  and  _433
REMARK  181  A    between atoms: _433  and  _434
REMARK  182  A    between atoms: _433  and  _436
REMARK  183  A    between atoms: _439  and  _441
REMARK  184  A    between atoms: _441  and  _442
REMARK  185  A    between atoms: _441  and  _444
REMARK  186  A    between atoms: _444  and  _445
REMARK  187  A    between atoms: _449  and  _450
REMARK  188  A    between atoms: _455  and  _457
REMARK  189  A    between atoms: _457  and  _458
REMARK  190  A    between atoms: _457  and  _460
REMARK  191  A    between atoms: _460  and  _461
REMARK  192  A    between atoms: _465  and  _466
REMARK  193  A    between atoms: _471  and  _473
REMARK  194  A    between atoms: _473  and  _474
REMARK  195  A    between atoms: _473  and  _476
REMARK  196  A    between atoms: _479  and  _481
REMARK  197  A    between atoms: _481  and  _482
REMARK  198  A    between atoms: _481  and  _484
REMARK  199  A    between atoms: _484  and  _485
REMARK  200  A    between atoms: _490  and  _492
REMARK  201  A    between atoms: _492  and  _493
REMARK  202  A    between atoms: _492  and  _495
REMARK  203  A    between atoms: _495  and  _496
REMARK  204  A    between atoms: _499  and  _501
REMARK  205  A    between atoms: _501  and  _502
REMARK  206  A    between atoms: _501  and  _504
REMARK  207  A    between atoms: _504  and  _505
REMARK  208  A    between atoms: _508  and  _510
REMARK  209  A    between atoms: _510  and  _511
REMARK  210  A    between atoms: _513  and  _515
REMARK  211  A    between atoms: _515  and  _516
REMARK  212  A    between atoms: _515  and  _518
REMARK  213  A    between atoms: _518  and  _519
REMARK  214  A    between atoms: _519  and  _520
REMARK  215  A    between atoms: _520  and  _521
REMARK  216  A    between atoms: _530  and  _532
REMARK  217  A    between atoms: _532  and  _533
REMARK  218  A    between atoms: _532  and  _535
REMARK  219  A    between atoms: _535  and  _536
REMARK                            x       y       z     vdW  Elec       q    Type
REMARK                         _______ _______ _______ _____ _____    ______ ____
ROOT
ATOM      1  O   HOH     1       0.864  11.122  27.116  0.00  0.00    +0.000 OA
ENDROOT
TORSDOF 0
REMARK  Name = ../refined-set-2016/1zpa/1zpa_pocket.pdb
REMARK  219 active torsions:
REMARK  status: ('A' for Active; 'I' for Inactive)
REMARK    1  A    between atoms: _1  and  _3
REMARK    2  A    between atoms: _3  and  _4
REMARK    3  A    between atoms: _3  and  _6
REMARK    4  A    between atoms: _6  and  _7
REMARK    5  A    between atoms: _7  and  _8
REMARK    6  A    between atoms: _8  and  _9
REMARK    7  A    between atoms: _18  and  _20
REMARK    8  A    between atoms: _20  and  _21
REMARK    9  A    between atoms: _20  and  _23
REMARK   10  A    between atoms: _23  and  _24
REMARK   11  A    between atoms: _27  and  _29
REMARK   12  A    between atoms: _29  and  _30
REMARK   13  A    between atoms: _29  and  _32
REMARK   14  A    between atoms: _32  and  _33
REMARK   15  A    between atoms: _36  and  _38
REMARK   16  A    between atoms: _38  and  _39
REMARK   17  A    between atoms: _38  and  _41
REMARK   18  A    between atoms: _41  and  _42
REMARK   19  A    between atoms: _45  and  _47
REMARK   20  A    between atoms: _47  and  _48
REMARK   21  A    between atoms: _47  and  _50
REMARK   22  A    between atoms: _50  and  _51
REMARK   23  A    between atoms: _54  and  _56
REMARK   24  A    between atoms: _56  and  _57
REMARK   25  A    between atoms: _59  and  _61
REMARK   26  A    between atoms: _61  and  _62
REMARK   27  A    between atoms: _65  and  _67
REMARK   28  A    between atoms: _67  and  _68
REMARK   29  A    between atoms: _67  and  _70
REMARK   30  A    between atoms: _70  and  _71
REMARK   31  A    between atoms: _74  and  _76
REMARK   32  A    between atoms: _76  and  _77
REMARK   33  A    between atoms: _76  and  _79
REMARK   34  A    between atoms: _79  and  _80
REMARK   35  A    between atoms: _83  and  _85
REMARK   36  A    between atoms: _85  and  _86
REMARK   37  A    between atoms: _85  and  _88
REMARK   38  A    between atoms: _88  and  _89
REMARK   39  A    between atoms: _92  and  _94
REMARK   40  A    between atoms: _94  and  _95
REMARK   41  A    between atoms: _94  and  _97
REMARK   42  A    between atoms: _100  and  _102
REMARK   43  A    between atoms: _102  and  _103
REMARK   44  A    between atoms: _102  and  _105
REMARK   45  A    between atoms: _105  and  _106
REMARK   46  A    between atoms: _106  and  _107
REMARK   47  A    between atoms: _109  and  _111
REMARK   48  A    between atoms: _111  and  _112
REMARK   49  A    between atoms: _111  and  _114
REMARK   50  A    between atoms: _114  and  _115
REMARK   51  A    between atoms: _118  and  _120
REMARK   52  A    between atoms: _120  and  _121
REMARK   53  A    between atoms: _123  and  _125
REMARK   54  A    between atoms: _125  and  _126
REMARK   55  A    between atoms: _128  and  _130
REMARK   56  A    between atoms: _130  and  _131
REMARK   57  A    between atoms: _130  and  _133
REMARK   58  A    between atoms: _133  and  _134
REMARK   59  A    between atoms: _137  and  _139
REMARK   60  A    between atoms: _139  and  _140
REMARK   61  A    between atoms: _142  and  _144
REMARK   62  A    between atoms: _144  and  _145
REMARK   63  A    between atoms: _147  and  _149
REMARK   64  A    between atoms: _149  and  _150
REMARK   65  A    between atoms: _149  and  _152
REMARK   66  A    between atoms: _152  and  _153
REMARK   67  A    between atoms: _159  and  _161
REMARK   68  A    between atoms: _161  and  _162
REMARK   69  A    between atoms: _161  and  _164
REMARK   70  A    between atoms: _164  and  _165
REMARK   71  A    between atoms: _168  and  _170
REMARK   72  A    between atoms: _170  and  _171
REMARK   73  A    between atoms: _170  and  _173
REMARK   74  A    between atoms: _173  and  _174
REMARK   75  A    between atoms: _177  and  _179
REMARK   76  A    between atoms: _179  and  _180
REMARK   77  A    between atoms: _179  and  _182
REMARK   78  A    between atoms: _182  and  _183
REMARK   79  A    between atoms: _187  and  _188
REMARK   80  A    between atoms: _193  and  _195
REMARK   81  A    between atoms: _195  and  _196
REMARK   82  A    between atoms: _195  and  _198
REMARK   83  A    between atoms: _201  and  _203
REMARK   84  A    between atoms: _203  and  _204
REMARK   85  A    between atoms: _203  and  _206
REMARK   86  A    between atoms: _206  and  _207
REMARK   87  A    between atoms: _212  and  _214
REMARK   88  A    between atoms: _214  and  _215
REMARK   89  A    between atoms: _214  and  _217
REMARK   90  A    between atoms: _217  and  _218
REMARK   91  A    between atoms: _221  and  _223
REMARK   92  A    between atoms: _223  and  _224
REMARK   93  A    between atoms: _226  and  _228
REMARK   94  A    between atoms: _228  and  _229
REMARK   95  A    between atoms: _228  and  _231
REMARK   96  A    between atoms: _231  and  _232
REMARK   97  A    between atoms: _232  and  _233
REMARK   98  A    between atoms: _233  and  _234
REMARK   99  A    between atoms: _243  and  _245
REMARK  100  A    between atoms: _245  and  _246
REMARK  101  A    between atoms: _245  and  _248
REMARK  102  A    between atoms: _248  and  _249
REMARK  103  A    between atoms: _254  and  _256
REMARK  104  A    between atoms: _256  and  _257
REMARK  105  A    between atoms: _256  and  _259
REMARK  106  A    between atoms: _259  and  _260
REMARK  107  A    between atoms: _260  and  _261
REMARK  108  A    between atoms: _261  and  _262
REMARK  109  A    between atoms: _271  and  _273
REMARK  110  A    between atoms: _273  and  _274
REMARK  111  A    between atoms: _273  and  _276
REMARK  112  A    between atoms: _276  and  _277
REMARK  113  A    between atoms: _280  and  _282
REMARK  114  A    between atoms: _282  and  _283
REMARK  115  A    between atoms: _282  and  _285
REMARK  116  A    between atoms: _285  and  _286
REMARK  117  A    between atoms: _289  and  _291
REMARK  118  A    between atoms: _291  and  _292
REMARK  119  A    between atoms: _291  and  _294
REMARK  120  A    between atoms: _294  and  _295
REMARK  121  A    between atoms: _298  and  _300
REMARK  122  A    between atoms: _300  and  _301
REMARK  123  A    between atoms: _300  and  _303
REMARK  124  A    between atoms: _303  and  _304
REMARK  125  A    between atoms: _307  and  _309
REMARK  126  A    between atoms: _309  and  _310
REMARK  127  A    between atoms: _309  and  _312
REMARK  128  A    between atoms: _312  and  _313
REMARK  129  A    between atoms: _316  and  _318
REMARK  130  A    between atoms: _318  and  _319
REMARK  131  A    between atoms: _321  and  _323
REMARK  132  A    between atoms: _323  and  _324
REMARK  133  A    between atoms: _327  and  _329
REMARK  134  A    between atoms: _329  and  _330
REMARK  135  A    between atoms: _329  and  _332
REMARK  136  A    between atoms: _332  and  _333
REMARK  137  A    between atoms: _336  and  _338
REMARK  138  A    between atoms: _338  and  _339
REMARK  139  A    between atoms: _338  and  _341
REMARK  140  A    between atoms: _341  and  _342
REMARK  141  A    between atoms: _345  and  _347
REMARK  142  A    between atoms: _347  and  _348
REMARK  143  A    between atoms: _347  and  _350
REMARK  144  A    between atoms: _350  and  _351
REMARK  145  A    between atoms: _354  and  _356
REMARK  146  A    between atoms: _356  and  _357
REMARK  147  A    between atoms: _356  and  _359
REMARK  148  A    between atoms: _362  and  _364
REMARK  149  A    between atoms: _364  and  _365
REMARK  150  A    between atoms: _364  and  _367
REMARK  151  A    between atoms: _367  and  _368
REMARK  152  A    between atoms: _368  and  _369
REMARK  153  A    between atoms: _369  and  _370
REMARK  154  A    between atoms: _370  and  _371
REMARK  155  A    between atoms: _375  and  _377
REMARK  156  A    between atoms: _377  and  _378
REMARK  157  A    between atoms: _377  and  _380
REMARK  158  A    between atoms: _380  and  _381
REMARK  159  A    between atoms: _381  and  _382
REMARK  160  A    between atoms: _384  and  _386
REMARK  161  A    between atoms: _386  and  _387
REMARK  162  A    between atoms: _386  and  _389
REMARK  163  A    between atoms: _389  and  _390
REMARK  164  A    between atoms: _393  and  _395
REMARK  165  A    between atoms: _395  and  _396
REMARK  166  A    between atoms: _398  and  _400
REMARK  167  A    between atoms: _400  and  _401
REMARK  168  A    between atoms: _403  and  _405
REMARK  169  A    between atoms: _405  and  _406
REMARK  170  A    between atoms: _405  and  _408
REMARK  171  A    between atoms: _408  and  _409
REMARK  172  A    between atoms: _412  and  _414
REMARK  173  A    between atoms: _414  and  _415
REMARK  174  A    between atoms: _417  and  _419
REMARK  175  A    between atoms: _419  and  _420
REMARK  176  A    between atoms: _422  and  _424
REMARK  177  A    between atoms: _424  and  _425
REMARK  178  A    between atoms: _424  and  _427
REMARK  179  A    between atoms: _427  and  _428
REMARK  180  A    between atoms: _431  and  _433
REMARK  181  A    between atoms: _433  and  _434
REMARK  182  A    between atoms: _433  and  _436
REMARK  183  A    between atoms: _439  and  _441
REMARK  184  A    between atoms: _441  and  _442
REMARK  185  A    between atoms: _441  and  _444
REMARK  186  A    between atoms: _444  and  _445
REMARK  187  A    between atoms: _449  and  _450
REMARK  188  A    between atoms: _455  and  _457
REMARK  189  A    between atoms: _457  and  _458
REMARK  190  A    between atoms: _457  and  _460
REMARK  191  A    between atoms: _460  and  _461
REMARK  192  A    between atoms: _465  and  _466
REMARK  193  A    between atoms: _471  and  _473
REMARK  194  A    between atoms: _473  and  _474
REMARK  195  A    between atoms: _473  and  _476
REMARK  196  A    between atoms: _479  and  _481
REMARK  197  A    between atoms: _481  and  _482
REMARK  198  A    between atoms: _481  and  _484
REMARK  199  A    between atoms: _484  and  _485
REMARK  200  A    between atoms: _490  and  _492
REMARK  201  A    between atoms: _492  and  _493
REMARK  202  A    between atoms: _492  and  _495
REMARK  203  A    between atoms: _495  and  _496
REMARK  204  A    between atoms: _499  and  _501
REMARK  205  A    between atoms: _501  and  _502
REMARK  206  A    between atoms: _501  and  _504
REMARK  207  A    between atoms: _504  and  _505
REMARK  208  A    between atoms: _508  and  _510
REMARK  209  A    between atoms: _510  and  _511
REMARK  210  A    between atoms: _513  and  _515
REMARK  211  A    between atoms: _515  and  _516
REMARK  212  A    between atoms: _515  and  _518
REMARK  213  A    between atoms: _518  and  _519
REMARK  214  A    between atoms: _519  and  _520
REMARK  215  A    between atoms: _520  and  _521
REMARK  216  A    between atoms: _530  and  _532
REMARK  217  A    between atoms: _532  and  _533
REMARK  218  A    between atoms: _532  and  _535
REMARK  219  A    between atoms: _535  and  _536
REMARK                            x       y       z     vdW  Elec       q    Type
REMARK                         _______ _______ _______ _____ _____    ______ ____
ROOT
ATOM      1  O   HOH     1     -18.536   5.152  25.951  0.00  0.00    +0.000 OA
ENDROOT
TORSDOF 0
REMARK  Name = ../refined-set-2016/1zpa/1zpa_pocket.pdb
REMARK  219 active torsions:
REMARK  status: ('A' for Active; 'I' for Inactive)
REMARK    1  A    between atoms: _1  and  _3
REMARK    2  A    between atoms: _3  and  _4
REMARK    3  A    between atoms: _3  and  _6
REMARK    4  A    between atoms: _6  and  _7
REMARK    5  A    between atoms: _7  and  _8
REMARK    6  A    between atoms: _8  and  _9
REMARK    7  A    between atoms: _18  and  _20
REMARK    8  A    between atoms: _20  and  _21
REMARK    9  A    between atoms: _20  and  _23
REMARK   10  A    between atoms: _23  and  _24
REMARK   11  A    between atoms: _27  and  _29
REMARK   12  A    between atoms: _29  and  _30
REMARK   13  A    between atoms: _29  and  _32
REMARK   14  A    between atoms: _32  and  _33
REMARK   15  A    between atoms: _36  and  _38
REMARK   16  A    between atoms: _38  and  _39
REMARK   17  A    between atoms: _38  and  _41
REMARK   18  A    between atoms: _41  and  _42
REMARK   19  A    between atoms: _45  and  _47
REMARK   20  A    between atoms: _47  and  _48
REMARK   21  A    between atoms: _47  and  _50
REMARK   22  A    between atoms: _50  and  _51
REMARK   23  A    between atoms: _54  and  _56
REMARK   24  A    between atoms: _56  and  _57
REMARK   25  A    between atoms: _59  and  _61
REMARK   26  A    between atoms: _61  and  _62
REMARK   27  A    between atoms: _65  and  _67
REMARK   28  A    between atoms: _67  and  _68
REMARK   29  A    between atoms: _67  and  _70
REMARK   30  A    between atoms: _70  and  _71
REMARK   31  A    between atoms: _74  and  _76
REMARK   32  A    between atoms: _76  and  _77
REMARK   33  A    between atoms: _76  and  _79
REMARK   34  A    between atoms: _79  and  _80
REMARK   35  A    between atoms: _83  and  _85
REMARK   36  A    between atoms: _85  and  _86
REMARK   37  A    between atoms: _85  and  _88
REMARK   38  A    between atoms: _88  and  _89
REMARK   39  A    between atoms: _92  and  _94
REMARK   40  A    between atoms: _94  and  _95
REMARK   41  A    between atoms: _94  and  _97
REMARK   42  A    between atoms: _100  and  _102
REMARK   43  A    between atoms: _102  and  _103
REMARK   44  A    between atoms: _102  and  _105
REMARK   45  A    between atoms: _105  and  _106
REMARK   46  A    between atoms: _106  and  _107
REMARK   47  A    between atoms: _109  and  _111
REMARK   48  A    between atoms: _111  and  _112
REMARK   49  A    between atoms: _111  and  _114
REMARK   50  A    between atoms: _114  and  _115
REMARK   51  A    between atoms: _118  and  _120
REMARK   52  A    between atoms: _120  and  _121
REMARK   53  A    between atoms: _123  and  _125
REMARK   54  A    between atoms: _125  and  _126
REMARK   55  A    between atoms: _128  and  _130
REMARK   56  A    between atoms: _130  and  _131
REMARK   57  A    between atoms: _130  and  _133
REMARK   58  A    between atoms: _133  and  _134
REMARK   59  A    between atoms: _137  and  _139
REMARK   60  A    between atoms: _139  and  _140
REMARK   61  A    between atoms: _142  and  _144
REMARK   62  A    between atoms: _144  and  _145
REMARK   63  A    between atoms: _147  and  _149
REMARK   64  A    between atoms: _149  and  _150
REMARK   65  A    between atoms: _149  and  _152
REMARK   66  A    between atoms: _152  and  _153
REMARK   67  A    between atoms: _159  and  _161
REMARK   68  A    between atoms: _161  and  _162
REMARK   69  A    between atoms: _161  and  _164
REMARK   70  A    between atoms: _164  and  _165
REMARK   71  A    between atoms: _168  and  _170
REMARK   72  A    between atoms: _170  and  _171
REMARK   73  A    between atoms: _170  and  _173
REMARK   74  A    between atoms: _173  and  _174
REMARK   75  A    between atoms: _177  and  _179
REMARK   76  A    between atoms: _179  and  _180
REMARK   77  A    between atoms: _179  and  _182
REMARK   78  A    between atoms: _182  and  _183
REMARK   79  A    between atoms: _187  and  _188
REMARK   80  A    between atoms: _193  and  _195
REMARK   81  A    between atoms: _195  and  _196
REMARK   82  A    between atoms: _195  and  _198
REMARK   83  A    between atoms: _201  and  _203
REMARK   84  A    between atoms: _203  and  _204
REMARK   85  A    between atoms: _203  and  _206
REMARK   86  A    between atoms: _206  and  _207
REMARK   87  A    between atoms: _212  and  _214
REMARK   88  A    between atoms: _214  and  _215
REMARK   89  A    between atoms: _214  and  _217
REMARK   90  A    between atoms: _217  and  _218
REMARK   91  A    between atoms: _221  and  _223
REMARK   92  A    between atoms: _223  and  _224
REMARK   93  A    between atoms: _226  and  _228
REMARK   94  A    between atoms: _228  and  _229
REMARK   95  A    between atoms: _228  and  _231
REMARK   96  A    between atoms: _231  and  _232
REMARK   97  A    between atoms: _232  and  _233
REMARK   98  A    between atoms: _233  and  _234
REMARK   99  A    between atoms: _243  and  _245
REMARK  100  A    between atoms: _245  and  _246
REMARK  101  A    between atoms: _245  and  _248
REMARK  102  A    between atoms: _248  and  _249
REMARK  103  A    between atoms: _254  and  _256
REMARK  104  A    between atoms: _256  and  _257
REMARK  105  A    between atoms: _256  and  _259
REMARK  106  A    between atoms: _259  and  _260
REMARK  107  A    between atoms: _260  and  _261
REMARK  108  A    between atoms: _261  and  _262
REMARK  109  A    between atoms: _271  and  _273
REMARK  110  A    between atoms: _273  and  _274
REMARK  111  A    between atoms: _273  and  _276
REMARK  112  A    between atoms: _276  and  _277
REMARK  113  A    between atoms: _280  and  _282
REMARK  114  A    between atoms: _282  and  _283
REMARK  115  A    between atoms: _282  and  _285
REMARK  116  A    between atoms: _285  and  _286
REMARK  117  A    between atoms: _289  and  _291
REMARK  118  A    between atoms: _291  and  _292
REMARK  119  A    between atoms: _291  and  _294
REMARK  120  A    between atoms: _294  and  _295
REMARK  121  A    between atoms: _298  and  _300
REMARK  122  A    between atoms: _300  and  _301
REMARK  123  A    between atoms: _300  and  _303
REMARK  124  A    between atoms: _303  and  _304
REMARK  125  A    between atoms: _307  and  _309
REMARK  126  A    between atoms: _309  and  _310
REMARK  127  A    between atoms: _309  and  _312
REMARK  128  A    between atoms: _312  and  _313
REMARK  129  A    between atoms: _316  and  _318
REMARK  130  A    between atoms: _318  and  _319
REMARK  131  A    between atoms: _321  and  _323
REMARK  132  A    between atoms: _323  and  _324
REMARK  133  A    between atoms: _327  and  _329
REMARK  134  A    between atoms: _329  and  _330
REMARK  135  A    between atoms: _329  and  _332
REMARK  136  A    between atoms: _332  and  _333
REMARK  137  A    between atoms: _336  and  _338
REMARK  138  A    between atoms: _338  and  _339
REMARK  139  A    between atoms: _338  and  _341
REMARK  140  A    between atoms: _341  and  _342
REMARK  141  A    between atoms: _345  and  _347
REMARK  142  A    between atoms: _347  and  _348
REMARK  143  A    between atoms: _347  and  _350
REMARK  144  A    between atoms: _350  and  _351
REMARK  145  A    between atoms: _354  and  _356
REMARK  146  A    between atoms: _356  and  _357
REMARK  147  A    between atoms: _356  and  _359
REMARK  148  A    between atoms: _362  and  _364
REMARK  149  A    between atoms: _364  and  _365
REMARK  150  A    between atoms: _364  and  _367
REMARK  151  A    between atoms: _367  and  _368
REMARK  152  A    between atoms: _368  and  _369
REMARK  153  A    between atoms: _369  and  _370
REMARK  154  A    between atoms: _370  and  _371
REMARK  155  A    between atoms: _375  and  _377
REMARK  156  A    between atoms: _377  and  _378
REMARK  157  A    between atoms: _377  and  _380
REMARK  158  A    between atoms: _380  and  _381
REMARK  159  A    between atoms: _381  and  _382
REMARK  160  A    between atoms: _384  and  _386
REMARK  161  A    between atoms: _386  and  _387
REMARK  162  A    between atoms: _386  and  _389
REMARK  163  A    between atoms: _389  and  _390
REMARK  164  A    between atoms: _393  and  _395
REMARK  165  A    between atoms: _395  and  _396
REMARK  166  A    between atoms: _398  and  _400
REMARK  167  A    between atoms: _400  and  _401
REMARK  168  A    between atoms: _403  and  _405
REMARK  169  A    between atoms: _405  and  _406
REMARK  170  A    between atoms: _405  and  _408
REMARK  171  A    between atoms: _408  and  _409
REMARK  172  A    between atoms: _412  and  _414
REMARK  173  A    between atoms: _414  and  _415
REMARK  174  A    between atoms: _417  and  _419
REMARK  175  A    between atoms: _419  and  _420
REMARK  176  A    between atoms: _422  and  _424
REMARK  177  A    between atoms: _424  and  _425
REMARK  178  A    between atoms: _424  and  _427
REMARK  179  A    between atoms: _427  and  _428
REMARK  180  A    between atoms: _431  and  _433
REMARK  181  A    between atoms: _433  and  _434
REMARK  182  A    between atoms: _433  and  _436
REMARK  183  A    between atoms: _439  and  _441
REMARK  184  A    between atoms: _441  and  _442
REMARK  185  A    between atoms: _441  and  _444
REMARK  186  A    between atoms: _444  and  _445
REMARK  187  A    between atoms: _449  and  _450
REMARK  188  A    between atoms: _455  and  _457
REMARK  189  A    between atoms: _457  and  _458
REMARK  190  A    between atoms: _457  and  _460
REMARK  191  A    between atoms: _460  and  _461
REMARK  192  A    between atoms: _465  and  _466
REMARK  193  A    between atoms: _471  and  _473
REMARK  194  A    between atoms: _473  and  _474
REMARK  195  A    between atoms: _473  and  _476
REMARK  196  A    between atoms: _479  and  _481
REMARK  197  A    between atoms: _481  and  _482
REMARK  198  A    between atoms: _481  and  _484
REMARK  199  A    between atoms: _484  and  _485
REMARK  200  A    between atoms: _490  and  _492
REMARK  201  A    between atoms: _492  and  _493
REMARK  202  A    between atoms: _492  and  _495
REMARK  203  A    between atoms: _495  and  _496
REMARK  204  A    between atoms: _499  and  _501
REMARK  205  A    between atoms: _501  and  _502
REMARK  206  A    between atoms: _501  and  _504
REMARK  207  A    between atoms: _504  and  _505
REMARK  208  A    between atoms: _508  and  _510
REMARK  209  A    between atoms: _510  and  _511
REMARK  210  A    between atoms: _513  and  _515
REMARK  211  A    between atoms: _515  and  _516
REMARK  212  A    between atoms: _515  and  _518
REMARK  213  A    between atoms: _518  and  _519
REMARK  214  A    between atoms: _519  and  _520
REMARK  215  A    between atoms: _520  and  _521
REMARK  216  A    between atoms: _530  and  _532
REMARK  217  A    between atoms: _532  and  _533
REMARK  218  A    between atoms: _532  and  _535
REMARK  219  A    between atoms: _535  and  _536
REMARK                            x       y       z     vdW  Elec       q    Type
REMARK                         _______ _______ _______ _____ _____    ______ ____
ROOT
ATOM      1  O   HOH     1     -22.410  13.731  31.963  0.00  0.00    +0.000 OA
ENDROOT
TORSDOF 0
REMARK  Name = ../refined-set-2016/1zpa/1zpa_pocket.pdb
REMARK  219 active torsions:
REMARK  status: ('A' for Active; 'I' for Inactive)
REMARK    1  A    between atoms: _1  and  _3
REMARK    2  A    between atoms: _3  and  _4
REMARK    3  A    between atoms: _3  and  _6
REMARK    4  A    between atoms: _6  and  _7
REMARK    5  A    between atoms: _7  and  _8
REMARK    6  A    between atoms: _8  and  _9
REMARK    7  A    between atoms: _18  and  _20
REMARK    8  A    between atoms: _20  and  _21
REMARK    9  A    between atoms: _20  and  _23
REMARK   10  A    between atoms: _23  and  _24
REMARK   11  A    between atoms: _27  and  _29
REMARK   12  A    between atoms: _29  and  _30
REMARK   13  A    between atoms: _29  and  _32
REMARK   14  A    between atoms: _32  and  _33
REMARK   15  A    between atoms: _36  and  _38
REMARK   16  A    between atoms: _38  and  _39
REMARK   17  A    between atoms: _38  and  _41
REMARK   18  A    between atoms: _41  and  _42
REMARK   19  A    between atoms: _45  and  _47
REMARK   20  A    between atoms: _47  and  _48
REMARK   21  A    between atoms: _47  and  _50
REMARK   22  A    between atoms: _50  and  _51
REMARK   23  A    between atoms: _54  and  _56
REMARK   24  A    between atoms: _56  and  _57
REMARK   25  A    between atoms: _59  and  _61
REMARK   26  A    between atoms: _61  and  _62
REMARK   27  A    between atoms: _65  and  _67
REMARK   28  A    between atoms: _67  and  _68
REMARK   29  A    between atoms: _67  and  _70
REMARK   30  A    between atoms: _70  and  _71
REMARK   31  A    between atoms: _74  and  _76
REMARK   32  A    between atoms: _76  and  _77
REMARK   33  A    between atoms: _76  and  _79
REMARK   34  A    between atoms: _79  and  _80
REMARK   35  A    between atoms: _83  and  _85
REMARK   36  A    between atoms: _85  and  _86
REMARK   37  A    between atoms: _85  and  _88
REMARK   38  A    between atoms: _88  and  _89
REMARK   39  A    between atoms: _92  and  _94
REMARK   40  A    between atoms: _94  and  _95
REMARK   41  A    between atoms: _94  and  _97
REMARK   42  A    between atoms: _100  and  _102
REMARK   43  A    between atoms: _102  and  _103
REMARK   44  A    between atoms: _102  and  _105
REMARK   45  A    between atoms: _105  and  _106
REMARK   46  A    between atoms: _106  and  _107
REMARK   47  A    between atoms: _109  and  _111
REMARK   48  A    between atoms: _111  and  _112
REMARK   49  A    between atoms: _111  and  _114
REMARK   50  A    between atoms: _114  and  _115
REMARK   51  A    between atoms: _118  and  _120
REMARK   52  A    between atoms: _120  and  _121
REMARK   53  A    between atoms: _123  and  _125
REMARK   54  A    between atoms: _125  and  _126
REMARK   55  A    between atoms: _128  and  _130
REMARK   56  A    between atoms: _130  and  _131
REMARK   57  A    between atoms: _130  and  _133
REMARK   58  A    between atoms: _133  and  _134
REMARK   59  A    between atoms: _137  and  _139
REMARK   60  A    between atoms: _139  and  _140
REMARK   61  A    between atoms: _142  and  _144
REMARK   62  A    between atoms: _144  and  _145
REMARK   63  A    between atoms: _147  and  _149
REMARK   64  A    between atoms: _149  and  _150
REMARK   65  A    between atoms: _149  and  _152
REMARK   66  A    between atoms: _152  and  _153
REMARK   67  A    between atoms: _159  and  _161
REMARK   68  A    between atoms: _161  and  _162
REMARK   69  A    between atoms: _161  and  _164
REMARK   70  A    between atoms: _164  and  _165
REMARK   71  A    between atoms: _168  and  _170
REMARK   72  A    between atoms: _170  and  _171
REMARK   73  A    between atoms: _170  and  _173
REMARK   74  A    between atoms: _173  and  _174
REMARK   75  A    between atoms: _177  and  _179
REMARK   76  A    between atoms: _179  and  _180
REMARK   77  A    between atoms: _179  and  _182
REMARK   78  A    between atoms: _182  and  _183
REMARK   79  A    between atoms: _187  and  _188
REMARK   80  A    between atoms: _193  and  _195
REMARK   81  A    between atoms: _195  and  _196
REMARK   82  A    between atoms: _195  and  _198
REMARK   83  A    between atoms: _201  and  _203
REMARK   84  A    between atoms: _203  and  _204
REMARK   85  A    between atoms: _203  and  _206
REMARK   86  A    between atoms: _206  and  _207
REMARK   87  A    between atoms: _212  and  _214
REMARK   88  A    between atoms: _214  and  _215
REMARK   89  A    between atoms: _214  and  _217
REMARK   90  A    between atoms: _217  and  _218
REMARK   91  A    between atoms: _221  and  _223
REMARK   92  A    between atoms: _223  and  _224
REMARK   93  A    between atoms: _226  and  _228
REMARK   94  A    between atoms: _228  and  _229
REMARK   95  A    between atoms: _228  and  _231
REMARK   96  A    between atoms: _231  and  _232
REMARK   97  A    between atoms: _232  and  _233
REMARK   98  A    between atoms: _233  and  _234
REMARK   99  A    between atoms: _243  and  _245
REMARK  100  A    between atoms: _245  and  _246
REMARK  101  A    between atoms: _245  and  _248
REMARK  102  A    between atoms: _248  and  _249
REMARK  103  A    between atoms: _254  and  _256
REMARK  104  A    between atoms: _256  and  _257
REMARK  105  A    between atoms: _256  and  _259
REMARK  106  A    between atoms: _259  and  _260
REMARK  107  A    between atoms: _260  and  _261
REMARK  108  A    between atoms: _261  and  _262
REMARK  109  A    between atoms: _271  and  _273
REMARK  110  A    between atoms: _273  and  _274
REMARK  111  A    between atoms: _273  and  _276
REMARK  112  A    between atoms: _276  and  _277
REMARK  113  A    between atoms: _280  and  _282
REMARK  114  A    between atoms: _282  and  _283
REMARK  115  A    between atoms: _282  and  _285
REMARK  116  A    between atoms: _285  and  _286
REMARK  117  A    between atoms: _289  and  _291
REMARK  118  A    between atoms: _291  and  _292
REMARK  119  A    between atoms: _291  and  _294
REMARK  120  A    between atoms: _294  and  _295
REMARK  121  A    between atoms: _298  and  _300
REMARK  122  A    between atoms: _300  and  _301
REMARK  123  A    between atoms: _300  and  _303
REMARK  124  A    between atoms: _303  and  _304
REMARK  125  A    between atoms: _307  and  _309
REMARK  126  A    between atoms: _309  and  _310
REMARK  127  A    between atoms: _309  and  _312
REMARK  128  A    between atoms: _312  and  _313
REMARK  129  A    between atoms: _316  and  _318
REMARK  130  A    between atoms: _318  and  _319
REMARK  131  A    between atoms: _321  and  _323
REMARK  132  A    between atoms: _323  and  _324
REMARK  133  A    between atoms: _327  and  _329
REMARK  134  A    between atoms: _329  and  _330
REMARK  135  A    between atoms: _329  and  _332
REMARK  136  A    between atoms: _332  and  _333
REMARK  137  A    between atoms: _336  and  _338
REMARK  138  A    between atoms: _338  and  _339
REMARK  139  A    between atoms: _338  and  _341
REMARK  140  A    between atoms: _341  and  _342
REMARK  141  A    between atoms: _345  and  _347
REMARK  142  A    between atoms: _347  and  _348
REMARK  143  A    between atoms: _347  and  _350
REMARK  144  A    between atoms: _350  and  _351
REMARK  145  A    between atoms: _354  and  _356
REMARK  146  A    between atoms: _356  and  _357
REMARK  147  A    between atoms: _356  and  _359
REMARK  148  A    between atoms: _362  and  _364
REMARK  149  A    between atoms: _364  and  _365
REMARK  150  A    between atoms: _364  and  _367
REMARK  151  A    between atoms: _367  and  _368
REMARK  152  A    between atoms: _368  and  _369
REMARK  153  A    between atoms: _369  and  _370
REMARK  154  A    between atoms: _370  and  _371
REMARK  155  A    between atoms: _375  and  _377
REMARK  156  A    between atoms: _377  and  _378
REMARK  157  A    between atoms: _377  and  _380
REMARK  158  A    between atoms: _380  and  _381
REMARK  159  A    between atoms: _381  and  _382
REMARK  160  A    between atoms: _384  and  _386
REMARK  161  A    between atoms: _386  and  _387
REMARK  162  A    between atoms: _386  and  _389
REMARK  163  A    between atoms: _389  and  _390
REMARK  164  A    between atoms: _393  and  _395
REMARK  165  A    between atoms: _395  and  _396
REMARK  166  A    between atoms: _398  and  _400
REMARK  167  A    between atoms: _400  and  _401
REMARK  168  A    between atoms: _403  and  _405
REMARK  169  A    between atoms: _405  and  _406
REMARK  170  A    between atoms: _405  and  _408
REMARK  171  A    between atoms: _408  and  _409
REMARK  172  A    between atoms: _412  and  _414
REMARK  173  A    between atoms: _414  and  _415
REMARK  174  A    between atoms: _417  and  _419
REMARK  175  A    between atoms: _419  and  _420
REMARK  176  A    between atoms: _422  and  _424
REMARK  177  A    between atoms: _424  and  _425
REMARK  178  A    between atoms: _424  and  _427
REMARK  179  A    between atoms: _427  and  _428
REMARK  180  A    between atoms: _431  and  _433
REMARK  181  A    between atoms: _433  and  _434
REMARK  182  A    between atoms: _433  and  _436
REMARK  183  A    between atoms: _439  and  _441
REMARK  184  A    between atoms: _441  and  _442
REMARK  185  A    between atoms: _441  and  _444
REMARK  186  A    between atoms: _444  and  _445
REMARK  187  A    between atoms: _449  and  _450
REMARK  188  A    between atoms: _455  and  _457
REMARK  189  A    between atoms: _457  and  _458
REMARK  190  A    between atoms: _457  and  _460
REMARK  191  A    between atoms: _460  and  _461
REMARK  192  A    between atoms: _465  and  _466
REMARK  193  A    between atoms: _471  and  _473
REMARK  194  A    between atoms: _473  and  _474
REMARK  195  A    between atoms: _473  and  _476
REMARK  196  A    between atoms: _479  and  _481
REMARK  197  A    between atoms: _481  and  _482
REMARK  198  A    between atoms: _481  and  _484
REMARK  199  A    between atoms: _484  and  _485
REMARK  200  A    between atoms: _490  and  _492
REMARK  201  A    between atoms: _492  and  _493
REMARK  202  A    between atoms: _492  and  _495
REMARK  203  A    between atoms: _495  and  _496
REMARK  204  A    between atoms: _499  and  _501
REMARK  205  A    between atoms: _501  and  _502
REMARK  206  A    between atoms: _501  and  _504
REMARK  207  A    between atoms: _504  and  _505
REMARK  208  A    between atoms: _508  and  _510
REMARK  209  A    between atoms: _510  and  _511
REMARK  210  A    between atoms: _513  and  _515
REMARK  211  A    between atoms: _515  and  _516
REMARK  212  A    between atoms: _515  and  _518
REMARK  213  A    between atoms: _518  and  _519
REMARK  214  A    between atoms: _519  and  _520
REMARK  215  A    between atoms: _520  and  _521
REMARK  216  A    between atoms: _530  and  _532
REMARK  217  A    between atoms: _532  and  _533
REMARK  218  A    between atoms: _532  and  _535
REMARK  219  A    between atoms: _535  and  _536
REMARK                            x       y       z     vdW  Elec       q    Type
REMARK                         _______ _______ _______ _____ _____    ______ ____
ROOT
ATOM      1  O   HOH     1      -4.210  16.824  15.395  0.00  0.00    +0.000 OA
ENDROOT
TORSDOF 0
REMARK  Name = ../refined-set-2016/1zpa/1zpa_pocket.pdb
REMARK  219 active torsions:
REMARK  status: ('A' for Active; 'I' for Inactive)
REMARK    1  A    between atoms: _1  and  _3
REMARK    2  A    between atoms: _3  and  _4
REMARK    3  A    between atoms: _3  and  _6
REMARK    4  A    between atoms: _6  and  _7
REMARK    5  A    between atoms: _7  and  _8
REMARK    6  A    between atoms: _8  and  _9
REMARK    7  A    between atoms: _18  and  _20
REMARK    8  A    between atoms: _20  and  _21
REMARK    9  A    between atoms: _20  and  _23
REMARK   10  A    between atoms: _23  and  _24
REMARK   11  A    between atoms: _27  and  _29
REMARK   12  A    between atoms: _29  and  _30
REMARK   13  A    between atoms: _29  and  _32
REMARK   14  A    between atoms: _32  and  _33
REMARK   15  A    between atoms: _36  and  _38
REMARK   16  A    between atoms: _38  and  _39
REMARK   17  A    between atoms: _38  and  _41
REMARK   18  A    between atoms: _41  and  _42
REMARK   19  A    between atoms: _45  and  _47
REMARK   20  A    between atoms: _47  and  _48
REMARK   21  A    between atoms: _47  and  _50
REMARK   22  A    between atoms: _50  and  _51
REMARK   23  A    between atoms: _54  and  _56
REMARK   24  A    between atoms: _56  and  _57
REMARK   25  A    between atoms: _59  and  _61
REMARK   26  A    between atoms: _61  and  _62
REMARK   27  A    between atoms: _65  and  _67
REMARK   28  A    between atoms: _67  and  _68
REMARK   29  A    between atoms: _67  and  _70
REMARK   30  A    between atoms: _70  and  _71
REMARK   31  A    between atoms: _74  and  _76
REMARK   32  A    between atoms: _76  and  _77
REMARK   33  A    between atoms: _76  and  _79
REMARK   34  A    between atoms: _79  and  _80
REMARK   35  A    between atoms: _83  and  _85
REMARK   36  A    between atoms: _85  and  _86
REMARK   37  A    between atoms: _85  and  _88
REMARK   38  A    between atoms: _88  and  _89
REMARK   39  A    between atoms: _92  and  _94
REMARK   40  A    between atoms: _94  and  _95
REMARK   41  A    between atoms: _94  and  _97
REMARK   42  A    between atoms: _100  and  _102
REMARK   43  A    between atoms: _102  and  _103
REMARK   44  A    between atoms: _102  and  _105
REMARK   45  A    between atoms: _105  and  _106
REMARK   46  A    between atoms: _106  and  _107
REMARK   47  A    between atoms: _109  and  _111
REMARK   48  A    between atoms: _111  and  _112
REMARK   49  A    between atoms: _111  and  _114
REMARK   50  A    between atoms: _114  and  _115
REMARK   51  A    between atoms: _118  and  _120
REMARK   52  A    between atoms: _120  and  _121
REMARK   53  A    between atoms: _123  and  _125
REMARK   54  A    between atoms: _125  and  _126
REMARK   55  A    between atoms: _128  and  _130
REMARK   56  A    between atoms: _130  and  _131
REMARK   57  A    between atoms: _130  and  _133
REMARK   58  A    between atoms: _133  and  _134
REMARK   59  A    between atoms: _137  and  _139
REMARK   60  A    between atoms: _139  and  _140
REMARK   61  A    between atoms: _142  and  _144
REMARK   62  A    between atoms: _144  and  _145
REMARK   63  A    between atoms: _147  and  _149
REMARK   64  A    between atoms: _149  and  _150
REMARK   65  A    between atoms: _149  and  _152
REMARK   66  A    between atoms: _152  and  _153
REMARK   67  A    between atoms: _159  and  _161
REMARK   68  A    between atoms: _161  and  _162
REMARK   69  A    between atoms: _161  and  _164
REMARK   70  A    between atoms: _164  and  _165
REMARK   71  A    between atoms: _168  and  _170
REMARK   72  A    between atoms: _170  and  _171
REMARK   73  A    between atoms: _170  and  _173
REMARK   74  A    between atoms: _173  and  _174
REMARK   75  A    between atoms: _177  and  _179
REMARK   76  A    between atoms: _179  and  _180
REMARK   77  A    between atoms: _179  and  _182
REMARK   78  A    between atoms: _182  and  _183
REMARK   79  A    between atoms: _187  and  _188
REMARK   80  A    between atoms: _193  and  _195
REMARK   81  A    between atoms: _195  and  _196
REMARK   82  A    between atoms: _195  and  _198
REMARK   83  A    between atoms: _201  and  _203
REMARK   84  A    between atoms: _203  and  _204
REMARK   85  A    between atoms: _203  and  _206
REMARK   86  A    between atoms: _206  and  _207
REMARK   87  A    between atoms: _212  and  _214
REMARK   88  A    between atoms: _214  and  _215
REMARK   89  A    between atoms: _214  and  _217
REMARK   90  A    between atoms: _217  and  _218
REMARK   91  A    between atoms: _221  and  _223
REMARK   92  A    between atoms: _223  and  _224
REMARK   93  A    between atoms: _226  and  _228
REMARK   94  A    between atoms: _228  and  _229
REMARK   95  A    between atoms: _228  and  _231
REMARK   96  A    between atoms: _231  and  _232
REMARK   97  A    between atoms: _232  and  _233
REMARK   98  A    between atoms: _233  and  _234
REMARK   99  A    between atoms: _243  and  _245
REMARK  100  A    between atoms: _245  and  _246
REMARK  101  A    between atoms: _245  and  _248
REMARK  102  A    between atoms: _248  and  _249
REMARK  103  A    between atoms: _254  and  _256
REMARK  104  A    between atoms: _256  and  _257
REMARK  105  A    between atoms: _256  and  _259
REMARK  106  A    between atoms: _259  and  _260
REMARK  107  A    between atoms: _260  and  _261
REMARK  108  A    between atoms: _261  and  _262
REMARK  109  A    between atoms: _271  and  _273
REMARK  110  A    between atoms: _273  and  _274
REMARK  111  A    between atoms: _273  and  _276
REMARK  112  A    between atoms: _276  and  _277
REMARK  113  A    between atoms: _280  and  _282
REMARK  114  A    between atoms: _282  and  _283
REMARK  115  A    between atoms: _282  and  _285
REMARK  116  A    between atoms: _285  and  _286
REMARK  117  A    between atoms: _289  and  _291
REMARK  118  A    between atoms: _291  and  _292
REMARK  119  A    between atoms: _291  and  _294
REMARK  120  A    between atoms: _294  and  _295
REMARK  121  A    between atoms: _298  and  _300
REMARK  122  A    between atoms: _300  and  _301
REMARK  123  A    between atoms: _300  and  _303
REMARK  124  A    between atoms: _303  and  _304
REMARK  125  A    between atoms: _307  and  _309
REMARK  126  A    between atoms: _309  and  _310
REMARK  127  A    between atoms: _309  and  _312
REMARK  128  A    between atoms: _312  and  _313
REMARK  129  A    between atoms: _316  and  _318
REMARK  130  A    between atoms: _318  and  _319
REMARK  131  A    between atoms: _321  and  _323
REMARK  132  A    between atoms: _323  and  _324
REMARK  133  A    between atoms: _327  and  _329
REMARK  134  A    between atoms: _329  and  _330
REMARK  135  A    between atoms: _329  and  _332
REMARK  136  A    between atoms: _332  and  _333
REMARK  137  A    between atoms: _336  and  _338
REMARK  138  A    between atoms: _338  and  _339
REMARK  139  A    between atoms: _338  and  _341
REMARK  140  A    between atoms: _341  and  _342
REMARK  141  A    between atoms: _345  and  _347
REMARK  142  A    between atoms: _347  and  _348
REMARK  143  A    between atoms: _347  and  _350
REMARK  144  A    between atoms: _350  and  _351
REMARK  145  A    between atoms: _354  and  _356
REMARK  146  A    between atoms: _356  and  _357
REMARK  147  A    between atoms: _356  and  _359
REMARK  148  A    between atoms: _362  and  _364
REMARK  149  A    between atoms: _364  and  _365
REMARK  150  A    between atoms: _364  and  _367
REMARK  151  A    between atoms: _367  and  _368
REMARK  152  A    between atoms: _368  and  _369
REMARK  153  A    between atoms: _369  and  _370
REMARK  154  A    between atoms: _370  and  _371
REMARK  155  A    between atoms: _375  and  _377
REMARK  156  A    between atoms: _377  and  _378
REMARK  157  A    between atoms: _377  and  _380
REMARK  158  A    between atoms: _380  and  _381
REMARK  159  A    between atoms: _381  and  _382
REMARK  160  A    between atoms: _384  and  _386
REMARK  161  A    between atoms: _386  and  _387
REMARK  162  A    between atoms: _386  and  _389
REMARK  163  A    between atoms: _389  and  _390
REMARK  164  A    between atoms: _393  and  _395
REMARK  165  A    between atoms: _395  and  _396
REMARK  166  A    between atoms: _398  and  _400
REMARK  167  A    between atoms: _400  and  _401
REMARK  168  A    between atoms: _403  and  _405
REMARK  169  A    between atoms: _405  and  _406
REMARK  170  A    between atoms: _405  and  _408
REMARK  171  A    between atoms: _408  and  _409
REMARK  172  A    between atoms: _412  and  _414
REMARK  173  A    between atoms: _414  and  _415
REMARK  174  A    between atoms: _417  and  _419
REMARK  175  A    between atoms: _419  and  _420
REMARK  176  A    between atoms: _422  and  _424
REMARK  177  A    between atoms: _424  and  _425
REMARK  178  A    between atoms: _424  and  _427
REMARK  179  A    between atoms: _427  and  _428
REMARK  180  A    between atoms: _431  and  _433
REMARK  181  A    between atoms: _433  and  _434
REMARK  182  A    between atoms: _433  and  _436
REMARK  183  A    between atoms: _439  and  _441
REMARK  184  A    between atoms: _441  and  _442
REMARK  185  A    between atoms: _441  and  _444
REMARK  186  A    between atoms: _444  and  _445
REMARK  187  A    between atoms: _449  and  _450
REMARK  188  A    between atoms: _455  and  _457
REMARK  189  A    between atoms: _457  and  _458
REMARK  190  A    between atoms: _457  and  _460
REMARK  191  A    between atoms: _460  and  _461
REMARK  192  A    between atoms: _465  and  _466
REMARK  193  A    between atoms: _471  and  _473
REMARK  194  A    between atoms: _473  and  _474
REMARK  195  A    between atoms: _473  and  _476
REMARK  196  A    between atoms: _479  and  _481
REMARK  197  A    between atoms: _481  and  _482
REMARK  198  A    between atoms: _481  and  _484
REMARK  199  A    between atoms: _484  and  _485
REMARK  200  A    between atoms: _490  and  _492
REMARK  201  A    between atoms: _492  and  _493
REMARK  202  A    between atoms: _492  and  _495
REMARK  203  A    between atoms: _495  and  _496
REMARK  204  A    between atoms: _499  and  _501
REMARK  205  A    between atoms: _501  and  _502
REMARK  206  A    between atoms: _501  and  _504
REMARK  207  A    between atoms: _504  and  _505
REMARK  208  A    between atoms: _508  and  _510
REMARK  209  A    between atoms: _510  and  _511
REMARK  210  A    between atoms: _513  and  _515
REMARK  211  A    between atoms: _515  and  _516
REMARK  212  A    between atoms: _515  and  _518
REMARK  213  A    between atoms: _518  and  _519
REMARK  214  A    between atoms: _519  and  _520
REMARK  215  A    between atoms: _520  and  _521
REMARK  216  A    between atoms: _530  and  _532
REMARK  217  A    between atoms: _532  and  _533
REMARK  218  A    between atoms: _532  and  _535
REMARK  219  A    between atoms: _535  and  _536
REMARK                            x       y       z     vdW  Elec       q    Type
REMARK                         _______ _______ _______ _____ _____    ______ ____
ROOT
ATOM      1  O   HOH     1     -20.181   9.202  27.322  0.00  0.00    +0.000 OA
ENDROOT
TORSDOF 0
REMARK  Name = ../refined-set-2016/1zpa/1zpa_pocket.pdb
REMARK  219 active torsions:
REMARK  status: ('A' for Active; 'I' for Inactive)
REMARK    1  A    between atoms: _1  and  _3
REMARK    2  A    between atoms: _3  and  _4
REMARK    3  A    between atoms: _3  and  _6
REMARK    4  A    between atoms: _6  and  _7
REMARK    5  A    between atoms: _7  and  _8
REMARK    6  A    between atoms: _8  and  _9
REMARK    7  A    between atoms: _18  and  _20
REMARK    8  A    between atoms: _20  and  _21
REMARK    9  A    between atoms: _20  and  _23
REMARK   10  A    between atoms: _23  and  _24
REMARK   11  A    between atoms: _27  and  _29
REMARK   12  A    between atoms: _29  and  _30
REMARK   13  A    between atoms: _29  and  _32
REMARK   14  A    between atoms: _32  and  _33
REMARK   15  A    between atoms: _36  and  _38
REMARK   16  A    between atoms: _38  and  _39
REMARK   17  A    between atoms: _38  and  _41
REMARK   18  A    between atoms: _41  and  _42
REMARK   19  A    between atoms: _45  and  _47
REMARK   20  A    between atoms: _47  and  _48
REMARK   21  A    between atoms: _47  and  _50
REMARK   22  A    between atoms: _50  and  _51
REMARK   23  A    between atoms: _54  and  _56
REMARK   24  A    between atoms: _56  and  _57
REMARK   25  A    between atoms: _59  and  _61
REMARK   26  A    between atoms: _61  and  _62
REMARK   27  A    between atoms: _65  and  _67
REMARK   28  A    between atoms: _67  and  _68
REMARK   29  A    between atoms: _67  and  _70
REMARK   30  A    between atoms: _70  and  _71
REMARK   31  A    between atoms: _74  and  _76
REMARK   32  A    between atoms: _76  and  _77
REMARK   33  A    between atoms: _76  and  _79
REMARK   34  A    between atoms: _79  and  _80
REMARK   35  A    between atoms: _83  and  _85
REMARK   36  A    between atoms: _85  and  _86
REMARK   37  A    between atoms: _85  and  _88
REMARK   38  A    between atoms: _88  and  _89
REMARK   39  A    between atoms: _92  and  _94
REMARK   40  A    between atoms: _94  and  _95
REMARK   41  A    between atoms: _94  and  _97
REMARK   42  A    between atoms: _100  and  _102
REMARK   43  A    between atoms: _102  and  _103
REMARK   44  A    between atoms: _102  and  _105
REMARK   45  A    between atoms: _105  and  _106
REMARK   46  A    between atoms: _106  and  _107
REMARK   47  A    between atoms: _109  and  _111
REMARK   48  A    between atoms: _111  and  _112
REMARK   49  A    between atoms: _111  and  _114
REMARK   50  A    between atoms: _114  and  _115
REMARK   51  A    between atoms: _118  and  _120
REMARK   52  A    between atoms: _120  and  _121
REMARK   53  A    between atoms: _123  and  _125
REMARK   54  A    between atoms: _125  and  _126
REMARK   55  A    between atoms: _128  and  _130
REMARK   56  A    between atoms: _130  and  _131
REMARK   57  A    between atoms: _130  and  _133
REMARK   58  A    between atoms: _133  and  _134
REMARK   59  A    between atoms: _137  and  _139
REMARK   60  A    between atoms: _139  and  _140
REMARK   61  A    between atoms: _142  and  _144
REMARK   62  A    between atoms: _144  and  _145
REMARK   63  A    between atoms: _147  and  _149
REMARK   64  A    between atoms: _149  and  _150
REMARK   65  A    between atoms: _149  and  _152
REMARK   66  A    between atoms: _152  and  _153
REMARK   67  A    between atoms: _159  and  _161
REMARK   68  A    between atoms: _161  and  _162
REMARK   69  A    between atoms: _161  and  _164
REMARK   70  A    between atoms: _164  and  _165
REMARK   71  A    between atoms: _168  and  _170
REMARK   72  A    between atoms: _170  and  _171
REMARK   73  A    between atoms: _170  and  _173
REMARK   74  A    between atoms: _173  and  _174
REMARK   75  A    between atoms: _177  and  _179
REMARK   76  A    between atoms: _179  and  _180
REMARK   77  A    between atoms: _179  and  _182
REMARK   78  A    between atoms: _182  and  _183
REMARK   79  A    between atoms: _187  and  _188
REMARK   80  A    between atoms: _193  and  _195
REMARK   81  A    between atoms: _195  and  _196
REMARK   82  A    between atoms: _195  and  _198
REMARK   83  A    between atoms: _201  and  _203
REMARK   84  A    between atoms: _203  and  _204
REMARK   85  A    between atoms: _203  and  _206
REMARK   86  A    between atoms: _206  and  _207
REMARK   87  A    between atoms: _212  and  _214
REMARK   88  A    between atoms: _214  and  _215
REMARK   89  A    between atoms: _214  and  _217
REMARK   90  A    between atoms: _217  and  _218
REMARK   91  A    between atoms: _221  and  _223
REMARK   92  A    between atoms: _223  and  _224
REMARK   93  A    between atoms: _226  and  _228
REMARK   94  A    between atoms: _228  and  _229
REMARK   95  A    between atoms: _228  and  _231
REMARK   96  A    between atoms: _231  and  _232
REMARK   97  A    between atoms: _232  and  _233
REMARK   98  A    between atoms: _233  and  _234
REMARK   99  A    between atoms: _243  and  _245
REMARK  100  A    between atoms: _245  and  _246
REMARK  101  A    between atoms: _245  and  _248
REMARK  102  A    between atoms: _248  and  _249
REMARK  103  A    between atoms: _254  and  _256
REMARK  104  A    between atoms: _256  and  _257
REMARK  105  A    between atoms: _256  and  _259
REMARK  106  A    between atoms: _259  and  _260
REMARK  107  A    between atoms: _260  and  _261
REMARK  108  A    between atoms: _261  and  _262
REMARK  109  A    between atoms: _271  and  _273
REMARK  110  A    between atoms: _273  and  _274
REMARK  111  A    between atoms: _273  and  _276
REMARK  112  A    between atoms: _276  and  _277
REMARK  113  A    between atoms: _280  and  _282
REMARK  114  A    between atoms: _282  and  _283
REMARK  115  A    between atoms: _282  and  _285
REMARK  116  A    between atoms: _285  and  _286
REMARK  117  A    between atoms: _289  and  _291
REMARK  118  A    between atoms: _291  and  _292
REMARK  119  A    between atoms: _291  and  _294
REMARK  120  A    between atoms: _294  and  _295
REMARK  121  A    between atoms: _298  and  _300
REMARK  122  A    between atoms: _300  and  _301
REMARK  123  A    between atoms: _300  and  _303
REMARK  124  A    between atoms: _303  and  _304
REMARK  125  A    between atoms: _307  and  _309
REMARK  126  A    between atoms: _309  and  _310
REMARK  127  A    between atoms: _309  and  _312
REMARK  128  A    between atoms: _312  and  _313
REMARK  129  A    between atoms: _316  and  _318
REMARK  130  A    between atoms: _318  and  _319
REMARK  131  A    between atoms: _321  and  _323
REMARK  132  A    between atoms: _323  and  _324
REMARK  133  A    between atoms: _327  and  _329
REMARK  134  A    between atoms: _329  and  _330
REMARK  135  A    between atoms: _329  and  _332
REMARK  136  A    between atoms: _332  and  _333
REMARK  137  A    between atoms: _336  and  _338
REMARK  138  A    between atoms: _338  and  _339
REMARK  139  A    between atoms: _338  and  _341
REMARK  140  A    between atoms: _341  and  _342
REMARK  141  A    between atoms: _345  and  _347
REMARK  142  A    between atoms: _347  and  _348
REMARK  143  A    between atoms: _347  and  _350
REMARK  144  A    between atoms: _350  and  _351
REMARK  145  A    between atoms: _354  and  _356
REMARK  146  A    between atoms: _356  and  _357
REMARK  147  A    between atoms: _356  and  _359
REMARK  148  A    between atoms: _362  and  _364
REMARK  149  A    between atoms: _364  and  _365
REMARK  150  A    between atoms: _364  and  _367
REMARK  151  A    between atoms: _367  and  _368
REMARK  152  A    between atoms: _368  and  _369
REMARK  153  A    between atoms: _369  and  _370
REMARK  154  A    between atoms: _370  and  _371
REMARK  155  A    between atoms: _375  and  _377
REMARK  156  A    between atoms: _377  and  _378
REMARK  157  A    between atoms: _377  and  _380
REMARK  158  A    between atoms: _380  and  _381
REMARK  159  A    between atoms: _381  and  _382
REMARK  160  A    between atoms: _384  and  _386
REMARK  161  A    between atoms: _386  and  _387
REMARK  162  A    between atoms: _386  and  _389
REMARK  163  A    between atoms: _389  and  _390
REMARK  164  A    between atoms: _393  and  _395
REMARK  165  A    between atoms: _395  and  _396
REMARK  166  A    between atoms: _398  and  _400
REMARK  167  A    between atoms: _400  and  _401
REMARK  168  A    between atoms: _403  and  _405
REMARK  169  A    between atoms: _405  and  _406
REMARK  170  A    between atoms: _405  and  _408
REMARK  171  A    between atoms: _408  and  _409
REMARK  172  A    between atoms: _412  and  _414
REMARK  173  A    between atoms: _414  and  _415
REMARK  174  A    between atoms: _417  and  _419
REMARK  175  A    between atoms: _419  and  _420
REMARK  176  A    between atoms: _422  and  _424
REMARK  177  A    between atoms: _424  and  _425
REMARK  178  A    between atoms: _424  and  _427
REMARK  179  A    between atoms: _427  and  _428
REMARK  180  A    between atoms: _431  and  _433
REMARK  181  A    between atoms: _433  and  _434
REMARK  182  A    between atoms: _433  and  _436
REMARK  183  A    between atoms: _439  and  _441
REMARK  184  A    between atoms: _441  and  _442
REMARK  185  A    between atoms: _441  and  _444
REMARK  186  A    between atoms: _444  and  _445
REMARK  187  A    between atoms: _449  and  _450
REMARK  188  A    between atoms: _455  and  _457
REMARK  189  A    between atoms: _457  and  _458
REMARK  190  A    between atoms: _457  and  _460
REMARK  191  A    between atoms: _460  and  _461
REMARK  192  A    between atoms: _465  and  _466
REMARK  193  A    between atoms: _471  and  _473
REMARK  194  A    between atoms: _473  and  _474
REMARK  195  A    between atoms: _473  and  _476
REMARK  196  A    between atoms: _479  and  _481
REMARK  197  A    between atoms: _481  and  _482
REMARK  198  A    between atoms: _481  and  _484
REMARK  199  A    between atoms: _484  and  _485
REMARK  200  A    between atoms: _490  and  _492
REMARK  201  A    between atoms: _492  and  _493
REMARK  202  A    between atoms: _492  and  _495
REMARK  203  A    between atoms: _495  and  _496
REMARK  204  A    between atoms: _499  and  _501
REMARK  205  A    between atoms: _501  and  _502
REMARK  206  A    between atoms: _501  and  _504
REMARK  207  A    between atoms: _504  and  _505
REMARK  208  A    between atoms: _508  and  _510
REMARK  209  A    between atoms: _510  and  _511
REMARK  210  A    between atoms: _513  and  _515
REMARK  211  A    between atoms: _515  and  _516
REMARK  212  A    between atoms: _515  and  _518
REMARK  213  A    between atoms: _518  and  _519
REMARK  214  A    between atoms: _519  and  _520
REMARK  215  A    between atoms: _520  and  _521
REMARK  216  A    between atoms: _530  and  _532
REMARK  217  A    between atoms: _532  and  _533
REMARK  218  A    between atoms: _532  and  _535
REMARK  219  A    between atoms: _535  and  _536
REMARK                            x       y       z     vdW  Elec       q    Type
REMARK                         _______ _______ _______ _____ _____    ______ ____
ROOT
ATOM      1  O   HOH     1      -6.130  22.035  22.677  0.00  0.00    +0.000 OA
ENDROOT
TORSDOF 0
REMARK  Name = ../refined-set-2016/1zpa/1zpa_pocket.pdb
REMARK  219 active torsions:
REMARK  status: ('A' for Active; 'I' for Inactive)
REMARK    1  A    between atoms: _1  and  _3
REMARK    2  A    between atoms: _3  and  _4
REMARK    3  A    between atoms: _3  and  _6
REMARK    4  A    between atoms: _6  and  _7
REMARK    5  A    between atoms: _7  and  _8
REMARK    6  A    between atoms: _8  and  _9
REMARK    7  A    between atoms: _18  and  _20
REMARK    8  A    between atoms: _20  and  _21
REMARK    9  A    between atoms: _20  and  _23
REMARK   10  A    between atoms: _23  and  _24
REMARK   11  A    between atoms: _27  and  _29
REMARK   12  A    between atoms: _29  and  _30
REMARK   13  A    between atoms: _29  and  _32
REMARK   14  A    between atoms: _32  and  _33
REMARK   15  A    between atoms: _36  and  _38
REMARK   16  A    between atoms: _38  and  _39
REMARK   17  A    between atoms: _38  and  _41
REMARK   18  A    between atoms: _41  and  _42
REMARK   19  A    between atoms: _45  and  _47
REMARK   20  A    between atoms: _47  and  _48
REMARK   21  A    between atoms: _47  and  _50
REMARK   22  A    between atoms: _50  and  _51
REMARK   23  A    between atoms: _54  and  _56
REMARK   24  A    between atoms: _56  and  _57
REMARK   25  A    between atoms: _59  and  _61
REMARK   26  A    between atoms: _61  and  _62
REMARK   27  A    between atoms: _65  and  _67
REMARK   28  A    between atoms: _67  and  _68
REMARK   29  A    between atoms: _67  and  _70
REMARK   30  A    between atoms: _70  and  _71
REMARK   31  A    between atoms: _74  and  _76
REMARK   32  A    between atoms: _76  and  _77
REMARK   33  A    between atoms: _76  and  _79
REMARK   34  A    between atoms: _79  and  _80
REMARK   35  A    between atoms: _83  and  _85
REMARK   36  A    between atoms: _85  and  _86
REMARK   37  A    between atoms: _85  and  _88
REMARK   38  A    between atoms: _88  and  _89
REMARK   39  A    between atoms: _92  and  _94
REMARK   40  A    between atoms: _94  and  _95
REMARK   41  A    between atoms: _94  and  _97
REMARK   42  A    between atoms: _100  and  _102
REMARK   43  A    between atoms: _102  and  _103
REMARK   44  A    between atoms: _102  and  _105
REMARK   45  A    between atoms: _105  and  _106
REMARK   46  A    between atoms: _106  and  _107
REMARK   47  A    between atoms: _109  and  _111
REMARK   48  A    between atoms: _111  and  _112
REMARK   49  A    between atoms: _111  and  _114
REMARK   50  A    between atoms: _114  and  _115
REMARK   51  A    between atoms: _118  and  _120
REMARK   52  A    between atoms: _120  and  _121
REMARK   53  A    between atoms: _123  and  _125
REMARK   54  A    between atoms: _125  and  _126
REMARK   55  A    between atoms: _128  and  _130
REMARK   56  A    between atoms: _130  and  _131
REMARK   57  A    between atoms: _130  and  _133
REMARK   58  A    between atoms: _133  and  _134
REMARK   59  A    between atoms: _137  and  _139
REMARK   60  A    between atoms: _139  and  _140
REMARK   61  A    between atoms: _142  and  _144
REMARK   62  A    between atoms: _144  and  _145
REMARK   63  A    between atoms: _147  and  _149
REMARK   64  A    between atoms: _149  and  _150
REMARK   65  A    between atoms: _149  and  _152
REMARK   66  A    between atoms: _152  and  _153
REMARK   67  A    between atoms: _159  and  _161
REMARK   68  A    between atoms: _161  and  _162
REMARK   69  A    between atoms: _161  and  _164
REMARK   70  A    between atoms: _164  and  _165
REMARK   71  A    between atoms: _168  and  _170
REMARK   72  A    between atoms: _170  and  _171
REMARK   73  A    between atoms: _170  and  _173
REMARK   74  A    between atoms: _173  and  _174
REMARK   75  A    between atoms: _177  and  _179
REMARK   76  A    between atoms: _179  and  _180
REMARK   77  A    between atoms: _179  and  _182
REMARK   78  A    between atoms: _182  and  _183
REMARK   79  A    between atoms: _187  and  _188
REMARK   80  A    between atoms: _193  and  _195
REMARK   81  A    between atoms: _195  and  _196
REMARK   82  A    between atoms: _195  and  _198
REMARK   83  A    between atoms: _201  and  _203
REMARK   84  A    between atoms: _203  and  _204
REMARK   85  A    between atoms: _203  and  _206
REMARK   86  A    between atoms: _206  and  _207
REMARK   87  A    between atoms: _212  and  _214
REMARK   88  A    between atoms: _214  and  _215
REMARK   89  A    between atoms: _214  and  _217
REMARK   90  A    between atoms: _217  and  _218
REMARK   91  A    between atoms: _221  and  _223
REMARK   92  A    between atoms: _223  and  _224
REMARK   93  A    between atoms: _226  and  _228
REMARK   94  A    between atoms: _228  and  _229
REMARK   95  A    between atoms: _228  and  _231
REMARK   96  A    between atoms: _231  and  _232
REMARK   97  A    between atoms: _232  and  _233
REMARK   98  A    between atoms: _233  and  _234
REMARK   99  A    between atoms: _243  and  _245
REMARK  100  A    between atoms: _245  and  _246
REMARK  101  A    between atoms: _245  and  _248
REMARK  102  A    between atoms: _248  and  _249
REMARK  103  A    between atoms: _254  and  _256
REMARK  104  A    between atoms: _256  and  _257
REMARK  105  A    between atoms: _256  and  _259
REMARK  106  A    between atoms: _259  and  _260
REMARK  107  A    between atoms: _260  and  _261
REMARK  108  A    between atoms: _261  and  _262
REMARK  109  A    between atoms: _271  and  _273
REMARK  110  A    between atoms: _273  and  _274
REMARK  111  A    between atoms: _273  and  _276
REMARK  112  A    between atoms: _276  and  _277
REMARK  113  A    between atoms: _280  and  _282
REMARK  114  A    between atoms: _282  and  _283
REMARK  115  A    between atoms: _282  and  _285
REMARK  116  A    between atoms: _285  and  _286
REMARK  117  A    between atoms: _289  and  _291
REMARK  118  A    between atoms: _291  and  _292
REMARK  119  A    between atoms: _291  and  _294
REMARK  120  A    between atoms: _294  and  _295
REMARK  121  A    between atoms: _298  and  _300
REMARK  122  A    between atoms: _300  and  _301
REMARK  123  A    between atoms: _300  and  _303
REMARK  124  A    between atoms: _303  and  _304
REMARK  125  A    between atoms: _307  and  _309
REMARK  126  A    between atoms: _309  and  _310
REMARK  127  A    between atoms: _309  and  _312
REMARK  128  A    between atoms: _312  and  _313
REMARK  129  A    between atoms: _316  and  _318
REMARK  130  A    between atoms: _318  and  _319
REMARK  131  A    between atoms: _321  and  _323
REMARK  132  A    between atoms: _323  and  _324
REMARK  133  A    between atoms: _327  and  _329
REMARK  134  A    between atoms: _329  and  _330
REMARK  135  A    between atoms: _329  and  _332
REMARK  136  A    between atoms: _332  and  _333
REMARK  137  A    between atoms: _336  and  _338
REMARK  138  A    between atoms: _338  and  _339
REMARK  139  A    between atoms: _338  and  _341
REMARK  140  A    between atoms: _341  and  _342
REMARK  141  A    between atoms: _345  and  _347
REMARK  142  A    between atoms: _347  and  _348
REMARK  143  A    between atoms: _347  and  _350
REMARK  144  A    between atoms: _350  and  _351
REMARK  145  A    between atoms: _354  and  _356
REMARK  146  A    between atoms: _356  and  _357
REMARK  147  A    between atoms: _356  and  _359
REMARK  148  A    between atoms: _362  and  _364
REMARK  149  A    between atoms: _364  and  _365
REMARK  150  A    between atoms: _364  and  _367
REMARK  151  A    between atoms: _367  and  _368
REMARK  152  A    between atoms: _368  and  _369
REMARK  153  A    between atoms: _369  and  _370
REMARK  154  A    between atoms: _370  and  _371
REMARK  155  A    between atoms: _375  and  _377
REMARK  156  A    between atoms: _377  and  _378
REMARK  157  A    between atoms: _377  and  _380
REMARK  158  A    between atoms: _380  and  _381
REMARK  159  A    between atoms: _381  and  _382
REMARK  160  A    between atoms: _384  and  _386
REMARK  161  A    between atoms: _386  and  _387
REMARK  162  A    between atoms: _386  and  _389
REMARK  163  A    between atoms: _389  and  _390
REMARK  164  A    between atoms: _393  and  _395
REMARK  165  A    between atoms: _395  and  _396
REMARK  166  A    between atoms: _398  and  _400
REMARK  167  A    between atoms: _400  and  _401
REMARK  168  A    between atoms: _403  and  _405
REMARK  169  A    between atoms: _405  and  _406
REMARK  170  A    between atoms: _405  and  _408
REMARK  171  A    between atoms: _408  and  _409
REMARK  172  A    between atoms: _412  and  _414
REMARK  173  A    between atoms: _414  and  _415
REMARK  174  A    between atoms: _417  and  _419
REMARK  175  A    between atoms: _419  and  _420
REMARK  176  A    between atoms: _422  and  _424
REMARK  177  A    between atoms: _424  and  _425
REMARK  178  A    between atoms: _424  and  _427
REMARK  179  A    between atoms: _427  and  _428
REMARK  180  A    between atoms: _431  and  _433
REMARK  181  A    between atoms: _433  and  _434
REMARK  182  A    between atoms: _433  and  _436
REMARK  183  A    between atoms: _439  and  _441
REMARK  184  A    between atoms: _441  and  _442
REMARK  185  A    between atoms: _441  and  _444
REMARK  186  A    between atoms: _444  and  _445
REMARK  187  A    between atoms: _449  and  _450
REMARK  188  A    between atoms: _455  and  _457
REMARK  189  A    between atoms: _457  and  _458
REMARK  190  A    between atoms: _457  and  _460
REMARK  191  A    between atoms: _460  and  _461
REMARK  192  A    between atoms: _465  and  _466
REMARK  193  A    between atoms: _471  and  _473
REMARK  194  A    between atoms: _473  and  _474
REMARK  195  A    between atoms: _473  and  _476
REMARK  196  A    between atoms: _479  and  _481
REMARK  197  A    between atoms: _481  and  _482
REMARK  198  A    between atoms: _481  and  _484
REMARK  199  A    between atoms: _484  and  _485
REMARK  200  A    between atoms: _490  and  _492
REMARK  201  A    between atoms: _492  and  _493
REMARK  202  A    between atoms: _492  and  _495
REMARK  203  A    between atoms: _495  and  _496
REMARK  204  A    between atoms: _499  and  _501
REMARK  205  A    between atoms: _501  and  _502
REMARK  206  A    between atoms: _501  and  _504
REMARK  207  A    between atoms: _504  and  _505
REMARK  208  A    between atoms: _508  and  _510
REMARK  209  A    between atoms: _510  and  _511
REMARK  210  A    between atoms: _513  and  _515
REMARK  211  A    between atoms: _515  and  _516
REMARK  212  A    between atoms: _515  and  _518
REMARK  213  A    between atoms: _518  and  _519
REMARK  214  A    between atoms: _519  and  _520
REMARK  215  A    between atoms: _520  and  _521
REMARK  216  A    between atoms: _530  and  _532
REMARK  217  A    between atoms: _532  and  _533
REMARK  218  A    between atoms: _532  and  _535
REMARK  219  A    between atoms: _535  and  _536
REMARK                            x       y       z     vdW  Elec       q    Type
REMARK                         _______ _______ _______ _____ _____    ______ ____
ROOT
ATOM      1  O   HOH     1     -21.309  12.054  27.476  0.00  0.00    +0.000 OA
ENDROOT
TORSDOF 0
REMARK  Name = ../refined-set-2016/1zpa/1zpa_pocket.pdb
REMARK  219 active torsions:
REMARK  status: ('A' for Active; 'I' for Inactive)
REMARK    1  A    between atoms: _1  and  _3
REMARK    2  A    between atoms: _3  and  _4
REMARK    3  A    between atoms: _3  and  _6
REMARK    4  A    between atoms: _6  and  _7
REMARK    5  A    between atoms: _7  and  _8
REMARK    6  A    between atoms: _8  and  _9
REMARK    7  A    between atoms: _18  and  _20
REMARK    8  A    between atoms: _20  and  _21
REMARK    9  A    between atoms: _20  and  _23
REMARK   10  A    between atoms: _23  and  _24
REMARK   11  A    between atoms: _27  and  _29
REMARK   12  A    between atoms: _29  and  _30
REMARK   13  A    between atoms: _29  and  _32
REMARK   14  A    between atoms: _32  and  _33
REMARK   15  A    between atoms: _36  and  _38
REMARK   16  A    between atoms: _38  and  _39
REMARK   17  A    between atoms: _38  and  _41
REMARK   18  A    between atoms: _41  and  _42
REMARK   19  A    between atoms: _45  and  _47
REMARK   20  A    between atoms: _47  and  _48
REMARK   21  A    between atoms: _47  and  _50
REMARK   22  A    between atoms: _50  and  _51
REMARK   23  A    between atoms: _54  and  _56
REMARK   24  A    between atoms: _56  and  _57
REMARK   25  A    between atoms: _59  and  _61
REMARK   26  A    between atoms: _61  and  _62
REMARK   27  A    between atoms: _65  and  _67
REMARK   28  A    between atoms: _67  and  _68
REMARK   29  A    between atoms: _67  and  _70
REMARK   30  A    between atoms: _70  and  _71
REMARK   31  A    between atoms: _74  and  _76
REMARK   32  A    between atoms: _76  and  _77
REMARK   33  A    between atoms: _76  and  _79
REMARK   34  A    between atoms: _79  and  _80
REMARK   35  A    between atoms: _83  and  _85
REMARK   36  A    between atoms: _85  and  _86
REMARK   37  A    between atoms: _85  and  _88
REMARK   38  A    between atoms: _88  and  _89
REMARK   39  A    between atoms: _92  and  _94
REMARK   40  A    between atoms: _94  and  _95
REMARK   41  A    between atoms: _94  and  _97
REMARK   42  A    between atoms: _100  and  _102
REMARK   43  A    between atoms: _102  and  _103
REMARK   44  A    between atoms: _102  and  _105
REMARK   45  A    between atoms: _105  and  _106
REMARK   46  A    between atoms: _106  and  _107
REMARK   47  A    between atoms: _109  and  _111
REMARK   48  A    between atoms: _111  and  _112
REMARK   49  A    between atoms: _111  and  _114
REMARK   50  A    between atoms: _114  and  _115
REMARK   51  A    between atoms: _118  and  _120
REMARK   52  A    between atoms: _120  and  _121
REMARK   53  A    between atoms: _123  and  _125
REMARK   54  A    between atoms: _125  and  _126
REMARK   55  A    between atoms: _128  and  _130
REMARK   56  A    between atoms: _130  and  _131
REMARK   57  A    between atoms: _130  and  _133
REMARK   58  A    between atoms: _133  and  _134
REMARK   59  A    between atoms: _137  and  _139
REMARK   60  A    between atoms: _139  and  _140
REMARK   61  A    between atoms: _142  and  _144
REMARK   62  A    between atoms: _144  and  _145
REMARK   63  A    between atoms: _147  and  _149
REMARK   64  A    between atoms: _149  and  _150
REMARK   65  A    between atoms: _149  and  _152
REMARK   66  A    between atoms: _152  and  _153
REMARK   67  A    between atoms: _159  and  _161
REMARK   68  A    between atoms: _161  and  _162
REMARK   69  A    between atoms: _161  and  _164
REMARK   70  A    between atoms: _164  and  _165
REMARK   71  A    between atoms: _168  and  _170
REMARK   72  A    between atoms: _170  and  _171
REMARK   73  A    between atoms: _170  and  _173
REMARK   74  A    between atoms: _173  and  _174
REMARK   75  A    between atoms: _177  and  _179
REMARK   76  A    between atoms: _179  and  _180
REMARK   77  A    between atoms: _179  and  _182
REMARK   78  A    between atoms: _182  and  _183
REMARK   79  A    between atoms: _187  and  _188
REMARK   80  A    between atoms: _193  and  _195
REMARK   81  A    between atoms: _195  and  _196
REMARK   82  A    between atoms: _195  and  _198
REMARK   83  A    between atoms: _201  and  _203
REMARK   84  A    between atoms: _203  and  _204
REMARK   85  A    between atoms: _203  and  _206
REMARK   86  A    between atoms: _206  and  _207
REMARK   87  A    between atoms: _212  and  _214
REMARK   88  A    between atoms: _214  and  _215
REMARK   89  A    between atoms: _214  and  _217
REMARK   90  A    between atoms: _217  and  _218
REMARK   91  A    between atoms: _221  and  _223
REMARK   92  A    between atoms: _223  and  _224
REMARK   93  A    between atoms: _226  and  _228
REMARK   94  A    between atoms: _228  and  _229
REMARK   95  A    between atoms: _228  and  _231
REMARK   96  A    between atoms: _231  and  _232
REMARK   97  A    between atoms: _232  and  _233
REMARK   98  A    between atoms: _233  and  _234
REMARK   99  A    between atoms: _243  and  _245
REMARK  100  A    between atoms: _245  and  _246
REMARK  101  A    between atoms: _245  and  _248
REMARK  102  A    between atoms: _248  and  _249
REMARK  103  A    between atoms: _254  and  _256
REMARK  104  A    between atoms: _256  and  _257
REMARK  105  A    between atoms: _256  and  _259
REMARK  106  A    between atoms: _259  and  _260
REMARK  107  A    between atoms: _260  and  _261
REMARK  108  A    between atoms: _261  and  _262
REMARK  109  A    between atoms: _271  and  _273
REMARK  110  A    between atoms: _273  and  _274
REMARK  111  A    between atoms: _273  and  _276
REMARK  112  A    between atoms: _276  and  _277
REMARK  113  A    between atoms: _280  and  _282
REMARK  114  A    between atoms: _282  and  _283
REMARK  115  A    between atoms: _282  and  _285
REMARK  116  A    between atoms: _285  and  _286
REMARK  117  A    between atoms: _289  and  _291
REMARK  118  A    between atoms: _291  and  _292
REMARK  119  A    between atoms: _291  and  _294
REMARK  120  A    between atoms: _294  and  _295
REMARK  121  A    between atoms: _298  and  _300
REMARK  122  A    between atoms: _300  and  _301
REMARK  123  A    between atoms: _300  and  _303
REMARK  124  A    between atoms: _303  and  _304
REMARK  125  A    between atoms: _307  and  _309
REMARK  126  A    between atoms: _309  and  _310
REMARK  127  A    between atoms: _309  and  _312
REMARK  128  A    between atoms: _312  and  _313
REMARK  129  A    between atoms: _316  and  _318
REMARK  130  A    between atoms: _318  and  _319
REMARK  131  A    between atoms: _321  and  _323
REMARK  132  A    between atoms: _323  and  _324
REMARK  133  A    between atoms: _327  and  _329
REMARK  134  A    between atoms: _329  and  _330
REMARK  135  A    between atoms: _329  and  _332
REMARK  136  A    between atoms: _332  and  _333
REMARK  137  A    between atoms: _336  and  _338
REMARK  138  A    between atoms: _338  and  _339
REMARK  139  A    between atoms: _338  and  _341
REMARK  140  A    between atoms: _341  and  _342
REMARK  141  A    between atoms: _345  and  _347
REMARK  142  A    between atoms: _347  and  _348
REMARK  143  A    between atoms: _347  and  _350
REMARK  144  A    between atoms: _350  and  _351
REMARK  145  A    between atoms: _354  and  _356
REMARK  146  A    between atoms: _356  and  _357
REMARK  147  A    between atoms: _356  and  _359
REMARK  148  A    between atoms: _362  and  _364
REMARK  149  A    between atoms: _364  and  _365
REMARK  150  A    between atoms: _364  and  _367
REMARK  151  A    between atoms: _367  and  _368
REMARK  152  A    between atoms: _368  and  _369
REMARK  153  A    between atoms: _369  and  _370
REMARK  154  A    between atoms: _370  and  _371
REMARK  155  A    between atoms: _375  and  _377
REMARK  156  A    between atoms: _377  and  _378
REMARK  157  A    between atoms: _377  and  _380
REMARK  158  A    between atoms: _380  and  _381
REMARK  159  A    between atoms: _381  and  _382
REMARK  160  A    between atoms: _384  and  _386
REMARK  161  A    between atoms: _386  and  _387
REMARK  162  A    between atoms: _386  and  _389
REMARK  163  A    between atoms: _389  and  _390
REMARK  164  A    between atoms: _393  and  _395
REMARK  165  A    between atoms: _395  and  _396
REMARK  166  A    between atoms: _398  and  _400
REMARK  167  A    between atoms: _400  and  _401
REMARK  168  A    between atoms: _403  and  _405
REMARK  169  A    between atoms: _405  and  _406
REMARK  170  A    between atoms: _405  and  _408
REMARK  171  A    between atoms: _408  and  _409
REMARK  172  A    between atoms: _412  and  _414
REMARK  173  A    between atoms: _414  and  _415
REMARK  174  A    between atoms: _417  and  _419
REMARK  175  A    between atoms: _419  and  _420
REMARK  176  A    between atoms: _422  and  _424
REMARK  177  A    between atoms: _424  and  _425
REMARK  178  A    between atoms: _424  and  _427
REMARK  179  A    between atoms: _427  and  _428
REMARK  180  A    between atoms: _431  and  _433
REMARK  181  A    between atoms: _433  and  _434
REMARK  182  A    between atoms: _433  and  _436
REMARK  183  A    between atoms: _439  and  _441
REMARK  184  A    between atoms: _441  and  _442
REMARK  185  A    between atoms: _441  and  _444
REMARK  186  A    between atoms: _444  and  _445
REMARK  187  A    between atoms: _449  and  _450
REMARK  188  A    between atoms: _455  and  _457
REMARK  189  A    between atoms: _457  and  _458
REMARK  190  A    between atoms: _457  and  _460
REMARK  191  A    between atoms: _460  and  _461
REMARK  192  A    between atoms: _465  and  _466
REMARK  193  A    between atoms: _471  and  _473
REMARK  194  A    between atoms: _473  and  _474
REMARK  195  A    between atoms: _473  and  _476
REMARK  196  A    between atoms: _479  and  _481
REMARK  197  A    between atoms: _481  and  _482
REMARK  198  A    between atoms: _481  and  _484
REMARK  199  A    between atoms: _484  and  _485
REMARK  200  A    between atoms: _490  and  _492
REMARK  201  A    between atoms: _492  and  _493
REMARK  202  A    between atoms: _492  and  _495
REMARK  203  A    between atoms: _495  and  _496
REMARK  204  A    between atoms: _499  and  _501
REMARK  205  A    between atoms: _501  and  _502
REMARK  206  A    between atoms: _501  and  _504
REMARK  207  A    between atoms: _504  and  _505
REMARK  208  A    between atoms: _508  and  _510
REMARK  209  A    between atoms: _510  and  _511
REMARK  210  A    between atoms: _513  and  _515
REMARK  211  A    between atoms: _515  and  _516
REMARK  212  A    between atoms: _515  and  _518
REMARK  213  A    between atoms: _518  and  _519
REMARK  214  A    between atoms: _519  and  _520
REMARK  215  A    between atoms: _520  and  _521
REMARK  216  A    between atoms: _530  and  _532
REMARK  217  A    between atoms: _532  and  _533
REMARK  218  A    between atoms: _532  and  _535
REMARK  219  A    between atoms: _535  and  _536
REMARK                            x       y       z     vdW  Elec       q    Type
REMARK                         _______ _______ _______ _____ _____    ______ ____
ROOT
ATOM      1  O   HOH     1      -2.757  20.477  16.937  0.00  0.00    +0.000 OA
ENDROOT
TORSDOF 0
REMARK  Name = ../refined-set-2016/1zpa/1zpa_pocket.pdb
REMARK  219 active torsions:
REMARK  status: ('A' for Active; 'I' for Inactive)
REMARK    1  A    between atoms: _1  and  _3
REMARK    2  A    between atoms: _3  and  _4
REMARK    3  A    between atoms: _3  and  _6
REMARK    4  A    between atoms: _6  and  _7
REMARK    5  A    between atoms: _7  and  _8
REMARK    6  A    between atoms: _8  and  _9
REMARK    7  A    between atoms: _18  and  _20
REMARK    8  A    between atoms: _20  and  _21
REMARK    9  A    between atoms: _20  and  _23
REMARK   10  A    between atoms: _23  and  _24
REMARK   11  A    between atoms: _27  and  _29
REMARK   12  A    between atoms: _29  and  _30
REMARK   13  A    between atoms: _29  and  _32
REMARK   14  A    between atoms: _32  and  _33
REMARK   15  A    between atoms: _36  and  _38
REMARK   16  A    between atoms: _38  and  _39
REMARK   17  A    between atoms: _38  and  _41
REMARK   18  A    between atoms: _41  and  _42
REMARK   19  A    between atoms: _45  and  _47
REMARK   20  A    between atoms: _47  and  _48
REMARK   21  A    between atoms: _47  and  _50
REMARK   22  A    between atoms: _50  and  _51
REMARK   23  A    between atoms: _54  and  _56
REMARK   24  A    between atoms: _56  and  _57
REMARK   25  A    between atoms: _59  and  _61
REMARK   26  A    between atoms: _61  and  _62
REMARK   27  A    between atoms: _65  and  _67
REMARK   28  A    between atoms: _67  and  _68
REMARK   29  A    between atoms: _67  and  _70
REMARK   30  A    between atoms: _70  and  _71
REMARK   31  A    between atoms: _74  and  _76
REMARK   32  A    between atoms: _76  and  _77
REMARK   33  A    between atoms: _76  and  _79
REMARK   34  A    between atoms: _79  and  _80
REMARK   35  A    between atoms: _83  and  _85
REMARK   36  A    between atoms: _85  and  _86
REMARK   37  A    between atoms: _85  and  _88
REMARK   38  A    between atoms: _88  and  _89
REMARK   39  A    between atoms: _92  and  _94
REMARK   40  A    between atoms: _94  and  _95
REMARK   41  A    between atoms: _94  and  _97
REMARK   42  A    between atoms: _100  and  _102
REMARK   43  A    between atoms: _102  and  _103
REMARK   44  A    between atoms: _102  and  _105
REMARK   45  A    between atoms: _105  and  _106
REMARK   46  A    between atoms: _106  and  _107
REMARK   47  A    between atoms: _109  and  _111
REMARK   48  A    between atoms: _111  and  _112
REMARK   49  A    between atoms: _111  and  _114
REMARK   50  A    between atoms: _114  and  _115
REMARK   51  A    between atoms: _118  and  _120
REMARK   52  A    between atoms: _120  and  _121
REMARK   53  A    between atoms: _123  and  _125
REMARK   54  A    between atoms: _125  and  _126
REMARK   55  A    between atoms: _128  and  _130
REMARK   56  A    between atoms: _130  and  _131
REMARK   57  A    between atoms: _130  and  _133
REMARK   58  A    between atoms: _133  and  _134
REMARK   59  A    between atoms: _137  and  _139
REMARK   60  A    between atoms: _139  and  _140
REMARK   61  A    between atoms: _142  and  _144
REMARK   62  A    between atoms: _144  and  _145
REMARK   63  A    between atoms: _147  and  _149
REMARK   64  A    between atoms: _149  and  _150
REMARK   65  A    between atoms: _149  and  _152
REMARK   66  A    between atoms: _152  and  _153
REMARK   67  A    between atoms: _159  and  _161
REMARK   68  A    between atoms: _161  and  _162
REMARK   69  A    between atoms: _161  and  _164
REMARK   70  A    between atoms: _164  and  _165
REMARK   71  A    between atoms: _168  and  _170
REMARK   72  A    between atoms: _170  and  _171
REMARK   73  A    between atoms: _170  and  _173
REMARK   74  A    between atoms: _173  and  _174
REMARK   75  A    between atoms: _177  and  _179
REMARK   76  A    between atoms: _179  and  _180
REMARK   77  A    between atoms: _179  and  _182
REMARK   78  A    between atoms: _182  and  _183
REMARK   79  A    between atoms: _187  and  _188
REMARK   80  A    between atoms: _193  and  _195
REMARK   81  A    between atoms: _195  and  _196
REMARK   82  A    between atoms: _195  and  _198
REMARK   83  A    between atoms: _201  and  _203
REMARK   84  A    between atoms: _203  and  _204
REMARK   85  A    between atoms: _203  and  _206
REMARK   86  A    between atoms: _206  and  _207
REMARK   87  A    between atoms: _212  and  _214
REMARK   88  A    between atoms: _214  and  _215
REMARK   89  A    between atoms: _214  and  _217
REMARK   90  A    between atoms: _217  and  _218
REMARK   91  A    between atoms: _221  and  _223
REMARK   92  A    between atoms: _223  and  _224
REMARK   93  A    between atoms: _226  and  _228
REMARK   94  A    between atoms: _228  and  _229
REMARK   95  A    between atoms: _228  and  _231
REMARK   96  A    between atoms: _231  and  _232
REMARK   97  A    between atoms: _232  and  _233
REMARK   98  A    between atoms: _233  and  _234
REMARK   99  A    between atoms: _243  and  _245
REMARK  100  A    between atoms: _245  and  _246
REMARK  101  A    between atoms: _245  and  _248
REMARK  102  A    between atoms: _248  and  _249
REMARK  103  A    between atoms: _254  and  _256
REMARK  104  A    between atoms: _256  and  _257
REMARK  105  A    between atoms: _256  and  _259
REMARK  106  A    between atoms: _259  and  _260
REMARK  107  A    between atoms: _260  and  _261
REMARK  108  A    between atoms: _261  and  _262
REMARK  109  A    between atoms: _271  and  _273
REMARK  110  A    between atoms: _273  and  _274
REMARK  111  A    between atoms: _273  and  _276
REMARK  112  A    between atoms: _276  and  _277
REMARK  113  A    between atoms: _280  and  _282
REMARK  114  A    between atoms: _282  and  _283
REMARK  115  A    between atoms: _282  and  _285
REMARK  116  A    between atoms: _285  and  _286
REMARK  117  A    between atoms: _289  and  _291
REMARK  118  A    between atoms: _291  and  _292
REMARK  119  A    between atoms: _291  and  _294
REMARK  120  A    between atoms: _294  and  _295
REMARK  121  A    between atoms: _298  and  _300
REMARK  122  A    between atoms: _300  and  _301
REMARK  123  A    between atoms: _300  and  _303
REMARK  124  A    between atoms: _303  and  _304
REMARK  125  A    between atoms: _307  and  _309
REMARK  126  A    between atoms: _309  and  _310
REMARK  127  A    between atoms: _309  and  _312
REMARK  128  A    between atoms: _312  and  _313
REMARK  129  A    between atoms: _316  and  _318
REMARK  130  A    between atoms: _318  and  _319
REMARK  131  A    between atoms: _321  and  _323
REMARK  132  A    between atoms: _323  and  _324
REMARK  133  A    between atoms: _327  and  _329
REMARK  134  A    between atoms: _329  and  _330
REMARK  135  A    between atoms: _329  and  _332
REMARK  136  A    between atoms: _332  and  _333
REMARK  137  A    between atoms: _336  and  _338
REMARK  138  A    between atoms: _338  and  _339
REMARK  139  A    between atoms: _338  and  _341
REMARK  140  A    between atoms: _341  and  _342
REMARK  141  A    between atoms: _345  and  _347
REMARK  142  A    between atoms: _347  and  _348
REMARK  143  A    between atoms: _347  and  _350
REMARK  144  A    between atoms: _350  and  _351
REMARK  145  A    between atoms: _354  and  _356
REMARK  146  A    between atoms: _356  and  _357
REMARK  147  A    between atoms: _356  and  _359
REMARK  148  A    between atoms: _362  and  _364
REMARK  149  A    between atoms: _364  and  _365
REMARK  150  A    between atoms: _364  and  _367
REMARK  151  A    between atoms: _367  and  _368
REMARK  152  A    between atoms: _368  and  _369
REMARK  153  A    between atoms: _369  and  _370
REMARK  154  A    between atoms: _370  and  _371
REMARK  155  A    between atoms: _375  and  _377
REMARK  156  A    between atoms: _377  and  _378
REMARK  157  A    between atoms: _377  and  _380
REMARK  158  A    between atoms: _380  and  _381
REMARK  159  A    between atoms: _381  and  _382
REMARK  160  A    between atoms: _384  and  _386
REMARK  161  A    between atoms: _386  and  _387
REMARK  162  A    between atoms: _386  and  _389
REMARK  163  A    between atoms: _389  and  _390
REMARK  164  A    between atoms: _393  and  _395
REMARK  165  A    between atoms: _395  and  _396
REMARK  166  A    between atoms: _398  and  _400
REMARK  167  A    between atoms: _400  and  _401
REMARK  168  A    between atoms: _403  and  _405
REMARK  169  A    between atoms: _405  and  _406
REMARK  170  A    between atoms: _405  and  _408
REMARK  171  A    between atoms: _408  and  _409
REMARK  172  A    between atoms: _412  and  _414
REMARK  173  A    between atoms: _414  and  _415
REMARK  174  A    between atoms: _417  and  _419
REMARK  175  A    between atoms: _419  and  _420
REMARK  176  A    between atoms: _422  and  _424
REMARK  177  A    between atoms: _424  and  _425
REMARK  178  A    between atoms: _424  and  _427
REMARK  179  A    between atoms: _427  and  _428
REMARK  180  A    between atoms: _431  and  _433
REMARK  181  A    between atoms: _433  and  _434
REMARK  182  A    between atoms: _433  and  _436
REMARK  183  A    between atoms: _439  and  _441
REMARK  184  A    between atoms: _441  and  _442
REMARK  185  A    between atoms: _441  and  _444
REMARK  186  A    between atoms: _444  and  _445
REMARK  187  A    between atoms: _449  and  _450
REMARK  188  A    between atoms: _455  and  _457
REMARK  189  A    between atoms: _457  and  _458
REMARK  190  A    between atoms: _457  and  _460
REMARK  191  A    between atoms: _460  and  _461
REMARK  192  A    between atoms: _465  and  _466
REMARK  193  A    between atoms: _471  and  _473
REMARK  194  A    between atoms: _473  and  _474
REMARK  195  A    between atoms: _473  and  _476
REMARK  196  A    between atoms: _479  and  _481
REMARK  197  A    between atoms: _481  and  _482
REMARK  198  A    between atoms: _481  and  _484
REMARK  199  A    between atoms: _484  and  _485
REMARK  200  A    between atoms: _490  and  _492
REMARK  201  A    between atoms: _492  and  _493
REMARK  202  A    between atoms: _492  and  _495
REMARK  203  A    between atoms: _495  and  _496
REMARK  204  A    between atoms: _499  and  _501
REMARK  205  A    between atoms: _501  and  _502
REMARK  206  A    between atoms: _501  and  _504
REMARK  207  A    between atoms: _504  and  _505
REMARK  208  A    between atoms: _508  and  _510
REMARK  209  A    between atoms: _510  and  _511
REMARK  210  A    between atoms: _513  and  _515
REMARK  211  A    between atoms: _515  and  _516
REMARK  212  A    between atoms: _515  and  _518
REMARK  213  A    between atoms: _518  and  _519
REMARK  214  A    between atoms: _519  and  _520
REMARK  215  A    between atoms: _520  and  _521
REMARK  216  A    between atoms: _530  and  _532
REMARK  217  A    between atoms: _532  and  _533
REMARK  218  A    between atoms: _532  and  _535
REMARK  219  A    between atoms: _535  and  _536
REMARK                            x       y       z     vdW  Elec       q    Type
REMARK                         _______ _______ _______ _____ _____    ______ ____
ROOT
ATOM      1  O   HOH     1      -3.477  14.529  14.409  0.00  0.00    +0.000 OA
ENDROOT
TORSDOF 0
REMARK  Name = ../refined-set-2016/1zpa/1zpa_pocket.pdb
REMARK  219 active torsions:
REMARK  status: ('A' for Active; 'I' for Inactive)
REMARK    1  A    between atoms: _1  and  _3
REMARK    2  A    between atoms: _3  and  _4
REMARK    3  A    between atoms: _3  and  _6
REMARK    4  A    between atoms: _6  and  _7
REMARK    5  A    between atoms: _7  and  _8
REMARK    6  A    between atoms: _8  and  _9
REMARK    7  A    between atoms: _18  and  _20
REMARK    8  A    between atoms: _20  and  _21
REMARK    9  A    between atoms: _20  and  _23
REMARK   10  A    between atoms: _23  and  _24
REMARK   11  A    between atoms: _27  and  _29
REMARK   12  A    between atoms: _29  and  _30
REMARK   13  A    between atoms: _29  and  _32
REMARK   14  A    between atoms: _32  and  _33
REMARK   15  A    between atoms: _36  and  _38
REMARK   16  A    between atoms: _38  and  _39
REMARK   17  A    between atoms: _38  and  _41
REMARK   18  A    between atoms: _41  and  _42
REMARK   19  A    between atoms: _45  and  _47
REMARK   20  A    between atoms: _47  and  _48
REMARK   21  A    between atoms: _47  and  _50
REMARK   22  A    between atoms: _50  and  _51
REMARK   23  A    between atoms: _54  and  _56
REMARK   24  A    between atoms: _56  and  _57
REMARK   25  A    between atoms: _59  and  _61
REMARK   26  A    between atoms: _61  and  _62
REMARK   27  A    between atoms: _65  and  _67
REMARK   28  A    between atoms: _67  and  _68
REMARK   29  A    between atoms: _67  and  _70
REMARK   30  A    between atoms: _70  and  _71
REMARK   31  A    between atoms: _74  and  _76
REMARK   32  A    between atoms: _76  and  _77
REMARK   33  A    between atoms: _76  and  _79
REMARK   34  A    between atoms: _79  and  _80
REMARK   35  A    between atoms: _83  and  _85
REMARK   36  A    between atoms: _85  and  _86
REMARK   37  A    between atoms: _85  and  _88
REMARK   38  A    between atoms: _88  and  _89
REMARK   39  A    between atoms: _92  and  _94
REMARK   40  A    between atoms: _94  and  _95
REMARK   41  A    between atoms: _94  and  _97
REMARK   42  A    between atoms: _100  and  _102
REMARK   43  A    between atoms: _102  and  _103
REMARK   44  A    between atoms: _102  and  _105
REMARK   45  A    between atoms: _105  and  _106
REMARK   46  A    between atoms: _106  and  _107
REMARK   47  A    between atoms: _109  and  _111
REMARK   48  A    between atoms: _111  and  _112
REMARK   49  A    between atoms: _111  and  _114
REMARK   50  A    between atoms: _114  and  _115
REMARK   51  A    between atoms: _118  and  _120
REMARK   52  A    between atoms: _120  and  _121
REMARK   53  A    between atoms: _123  and  _125
REMARK   54  A    between atoms: _125  and  _126
REMARK   55  A    between atoms: _128  and  _130
REMARK   56  A    between atoms: _130  and  _131
REMARK   57  A    between atoms: _130  and  _133
REMARK   58  A    between atoms: _133  and  _134
REMARK   59  A    between atoms: _137  and  _139
REMARK   60  A    between atoms: _139  and  _140
REMARK   61  A    between atoms: _142  and  _144
REMARK   62  A    between atoms: _144  and  _145
REMARK   63  A    between atoms: _147  and  _149
REMARK   64  A    between atoms: _149  and  _150
REMARK   65  A    between atoms: _149  and  _152
REMARK   66  A    between atoms: _152  and  _153
REMARK   67  A    between atoms: _159  and  _161
REMARK   68  A    between atoms: _161  and  _162
REMARK   69  A    between atoms: _161  and  _164
REMARK   70  A    between atoms: _164  and  _165
REMARK   71  A    between atoms: _168  and  _170
REMARK   72  A    between atoms: _170  and  _171
REMARK   73  A    between atoms: _170  and  _173
REMARK   74  A    between atoms: _173  and  _174
REMARK   75  A    between atoms: _177  and  _179
REMARK   76  A    between atoms: _179  and  _180
REMARK   77  A    between atoms: _179  and  _182
REMARK   78  A    between atoms: _182  and  _183
REMARK   79  A    between atoms: _187  and  _188
REMARK   80  A    between atoms: _193  and  _195
REMARK   81  A    between atoms: _195  and  _196
REMARK   82  A    between atoms: _195  and  _198
REMARK   83  A    between atoms: _201  and  _203
REMARK   84  A    between atoms: _203  and  _204
REMARK   85  A    between atoms: _203  and  _206
REMARK   86  A    between atoms: _206  and  _207
REMARK   87  A    between atoms: _212  and  _214
REMARK   88  A    between atoms: _214  and  _215
REMARK   89  A    between atoms: _214  and  _217
REMARK   90  A    between atoms: _217  and  _218
REMARK   91  A    between atoms: _221  and  _223
REMARK   92  A    between atoms: _223  and  _224
REMARK   93  A    between atoms: _226  and  _228
REMARK   94  A    between atoms: _228  and  _229
REMARK   95  A    between atoms: _228  and  _231
REMARK   96  A    between atoms: _231  and  _232
REMARK   97  A    between atoms: _232  and  _233
REMARK   98  A    between atoms: _233  and  _234
REMARK   99  A    between atoms: _243  and  _245
REMARK  100  A    between atoms: _245  and  _246
REMARK  101  A    between atoms: _245  and  _248
REMARK  102  A    between atoms: _248  and  _249
REMARK  103  A    between atoms: _254  and  _256
REMARK  104  A    between atoms: _256  and  _257
REMARK  105  A    between atoms: _256  and  _259
REMARK  106  A    between atoms: _259  and  _260
REMARK  107  A    between atoms: _260  and  _261
REMARK  108  A    between atoms: _261  and  _262
REMARK  109  A    between atoms: _271  and  _273
REMARK  110  A    between atoms: _273  and  _274
REMARK  111  A    between atoms: _273  and  _276
REMARK  112  A    between atoms: _276  and  _277
REMARK  113  A    between atoms: _280  and  _282
REMARK  114  A    between atoms: _282  and  _283
REMARK  115  A    between atoms: _282  and  _285
REMARK  116  A    between atoms: _285  and  _286
REMARK  117  A    between atoms: _289  and  _291
REMARK  118  A    between atoms: _291  and  _292
REMARK  119  A    between atoms: _291  and  _294
REMARK  120  A    between atoms: _294  and  _295
REMARK  121  A    between atoms: _298  and  _300
REMARK  122  A    between atoms: _300  and  _301
REMARK  123  A    between atoms: _300  and  _303
REMARK  124  A    between atoms: _303  and  _304
REMARK  125  A    between atoms: _307  and  _309
REMARK  126  A    between atoms: _309  and  _310
REMARK  127  A    between atoms: _309  and  _312
REMARK  128  A    between atoms: _312  and  _313
REMARK  129  A    between atoms: _316  and  _318
REMARK  130  A    between atoms: _318  and  _319
REMARK  131  A    between atoms: _321  and  _323
REMARK  132  A    between atoms: _323  and  _324
REMARK  133  A    between atoms: _327  and  _329
REMARK  134  A    between atoms: _329  and  _330
REMARK  135  A    between atoms: _329  and  _332
REMARK  136  A    between atoms: _332  and  _333
REMARK  137  A    between atoms: _336  and  _338
REMARK  138  A    between atoms: _338  and  _339
REMARK  139  A    between atoms: _338  and  _341
REMARK  140  A    between atoms: _341  and  _342
REMARK  141  A    between atoms: _345  and  _347
REMARK  142  A    between atoms: _347  and  _348
REMARK  143  A    between atoms: _347  and  _350
REMARK  144  A    between atoms: _350  and  _351
REMARK  145  A    between atoms: _354  and  _356
REMARK  146  A    between atoms: _356  and  _357
REMARK  147  A    between atoms: _356  and  _359
REMARK  148  A    between atoms: _362  and  _364
REMARK  149  A    between atoms: _364  and  _365
REMARK  150  A    between atoms: _364  and  _367
REMARK  151  A    between atoms: _367  and  _368
REMARK  152  A    between atoms: _368  and  _369
REMARK  153  A    between atoms: _369  and  _370
REMARK  154  A    between atoms: _370  and  _371
REMARK  155  A    between atoms: _375  and  _377
REMARK  156  A    between atoms: _377  and  _378
REMARK  157  A    between atoms: _377  and  _380
REMARK  158  A    between atoms: _380  and  _381
REMARK  159  A    between atoms: _381  and  _382
REMARK  160  A    between atoms: _384  and  _386
REMARK  161  A    between atoms: _386  and  _387
REMARK  162  A    between atoms: _386  and  _389
REMARK  163  A    between atoms: _389  and  _390
REMARK  164  A    between atoms: _393  and  _395
REMARK  165  A    between atoms: _395  and  _396
REMARK  166  A    between atoms: _398  and  _400
REMARK  167  A    between atoms: _400  and  _401
REMARK  168  A    between atoms: _403  and  _405
REMARK  169  A    between atoms: _405  and  _406
REMARK  170  A    between atoms: _405  and  _408
REMARK  171  A    between atoms: _408  and  _409
REMARK  172  A    between atoms: _412  and  _414
REMARK  173  A    between atoms: _414  and  _415
REMARK  174  A    between atoms: _417  and  _419
REMARK  175  A    between atoms: _419  and  _420
REMARK  176  A    between atoms: _422  and  _424
REMARK  177  A    between atoms: _424  and  _425
REMARK  178  A    between atoms: _424  and  _427
REMARK  179  A    between atoms: _427  and  _428
REMARK  180  A    between atoms: _431  and  _433
REMARK  181  A    between atoms: _433  and  _434
REMARK  182  A    between atoms: _433  and  _436
REMARK  183  A    between atoms: _439  and  _441
REMARK  184  A    between atoms: _441  and  _442
REMARK  185  A    between atoms: _441  and  _444
REMARK  186  A    between atoms: _444  and  _445
REMARK  187  A    between atoms: _449  and  _450
REMARK  188  A    between atoms: _455  and  _457
REMARK  189  A    between atoms: _457  and  _458
REMARK  190  A    between atoms: _457  and  _460
REMARK  191  A    between atoms: _460  and  _461
REMARK  192  A    between atoms: _465  and  _466
REMARK  193  A    between atoms: _471  and  _473
REMARK  194  A    between atoms: _473  and  _474
REMARK  195  A    between atoms: _473  and  _476
REMARK  196  A    between atoms: _479  and  _481
REMARK  197  A    between atoms: _481  and  _482
REMARK  198  A    between atoms: _481  and  _484
REMARK  199  A    between atoms: _484  and  _485
REMARK  200  A    between atoms: _490  and  _492
REMARK  201  A    between atoms: _492  and  _493
REMARK  202  A    between atoms: _492  and  _495
REMARK  203  A    between atoms: _495  and  _496
REMARK  204  A    between atoms: _499  and  _501
REMARK  205  A    between atoms: _501  and  _502
REMARK  206  A    between atoms: _501  and  _504
REMARK  207  A    between atoms: _504  and  _505
REMARK  208  A    between atoms: _508  and  _510
REMARK  209  A    between atoms: _510  and  _511
REMARK  210  A    between atoms: _513  and  _515
REMARK  211  A    between atoms: _515  and  _516
REMARK  212  A    between atoms: _515  and  _518
REMARK  213  A    between atoms: _518  and  _519
REMARK  214  A    between atoms: _519  and  _520
REMARK  215  A    between atoms: _520  and  _521
REMARK  216  A    between atoms: _530  and  _532
REMARK  217  A    between atoms: _532  and  _533
REMARK  218  A    between atoms: _532  and  _535
REMARK  219  A    between atoms: _535  and  _536
REMARK                            x       y       z     vdW  Elec       q    Type
REMARK                         _______ _______ _______ _____ _____    ______ ____
ROOT
ATOM      1  O   HOH     1     -19.714  12.451  30.791  0.00  0.00    +0.000 OA
ENDROOT
TORSDOF 0
REMARK  Name = ../refined-set-2016/1zpa/1zpa_pocket.pdb
REMARK  219 active torsions:
REMARK  status: ('A' for Active; 'I' for Inactive)
REMARK    1  A    between atoms: _1  and  _3
REMARK    2  A    between atoms: _3  and  _4
REMARK    3  A    between atoms: _3  and  _6
REMARK    4  A    between atoms: _6  and  _7
REMARK    5  A    between atoms: _7  and  _8
REMARK    6  A    between atoms: _8  and  _9
REMARK    7  A    between atoms: _18  and  _20
REMARK    8  A    between atoms: _20  and  _21
REMARK    9  A    between atoms: _20  and  _23
REMARK   10  A    between atoms: _23  and  _24
REMARK   11  A    between atoms: _27  and  _29
REMARK   12  A    between atoms: _29  and  _30
REMARK   13  A    between atoms: _29  and  _32
REMARK   14  A    between atoms: _32  and  _33
REMARK   15  A    between atoms: _36  and  _38
REMARK   16  A    between atoms: _38  and  _39
REMARK   17  A    between atoms: _38  and  _41
REMARK   18  A    between atoms: _41  and  _42
REMARK   19  A    between atoms: _45  and  _47
REMARK   20  A    between atoms: _47  and  _48
REMARK   21  A    between atoms: _47  and  _50
REMARK   22  A    between atoms: _50  and  _51
REMARK   23  A    between atoms: _54  and  _56
REMARK   24  A    between atoms: _56  and  _57
REMARK   25  A    between atoms: _59  and  _61
REMARK   26  A    between atoms: _61  and  _62
REMARK   27  A    between atoms: _65  and  _67
REMARK   28  A    between atoms: _67  and  _68
REMARK   29  A    between atoms: _67  and  _70
REMARK   30  A    between atoms: _70  and  _71
REMARK   31  A    between atoms: _74  and  _76
REMARK   32  A    between atoms: _76  and  _77
REMARK   33  A    between atoms: _76  and  _79
REMARK   34  A    between atoms: _79  and  _80
REMARK   35  A    between atoms: _83  and  _85
REMARK   36  A    between atoms: _85  and  _86
REMARK   37  A    between atoms: _85  and  _88
REMARK   38  A    between atoms: _88  and  _89
REMARK   39  A    between atoms: _92  and  _94
REMARK   40  A    between atoms: _94  and  _95
REMARK   41  A    between atoms: _94  and  _97
REMARK   42  A    between atoms: _100  and  _102
REMARK   43  A    between atoms: _102  and  _103
REMARK   44  A    between atoms: _102  and  _105
REMARK   45  A    between atoms: _105  and  _106
REMARK   46  A    between atoms: _106  and  _107
REMARK   47  A    between atoms: _109  and  _111
REMARK   48  A    between atoms: _111  and  _112
REMARK   49  A    between atoms: _111  and  _114
REMARK   50  A    between atoms: _114  and  _115
REMARK   51  A    between atoms: _118  and  _120
REMARK   52  A    between atoms: _120  and  _121
REMARK   53  A    between atoms: _123  and  _125
REMARK   54  A    between atoms: _125  and  _126
REMARK   55  A    between atoms: _128  and  _130
REMARK   56  A    between atoms: _130  and  _131
REMARK   57  A    between atoms: _130  and  _133
REMARK   58  A    between atoms: _133  and  _134
REMARK   59  A    between atoms: _137  and  _139
REMARK   60  A    between atoms: _139  and  _140
REMARK   61  A    between atoms: _142  and  _144
REMARK   62  A    between atoms: _144  and  _145
REMARK   63  A    between atoms: _147  and  _149
REMARK   64  A    between atoms: _149  and  _150
REMARK   65  A    between atoms: _149  and  _152
REMARK   66  A    between atoms: _152  and  _153
REMARK   67  A    between atoms: _159  and  _161
REMARK   68  A    between atoms: _161  and  _162
REMARK   69  A    between atoms: _161  and  _164
REMARK   70  A    between atoms: _164  and  _165
REMARK   71  A    between atoms: _168  and  _170
REMARK   72  A    between atoms: _170  and  _171
REMARK   73  A    between atoms: _170  and  _173
REMARK   74  A    between atoms: _173  and  _174
REMARK   75  A    between atoms: _177  and  _179
REMARK   76  A    between atoms: _179  and  _180
REMARK   77  A    between atoms: _179  and  _182
REMARK   78  A    between atoms: _182  and  _183
REMARK   79  A    between atoms: _187  and  _188
REMARK   80  A    between atoms: _193  and  _195
REMARK   81  A    between atoms: _195  and  _196
REMARK   82  A    between atoms: _195  and  _198
REMARK   83  A    between atoms: _201  and  _203
REMARK   84  A    between atoms: _203  and  _204
REMARK   85  A    between atoms: _203  and  _206
REMARK   86  A    between atoms: _206  and  _207
REMARK   87  A    between atoms: _212  and  _214
REMARK   88  A    between atoms: _214  and  _215
REMARK   89  A    between atoms: _214  and  _217
REMARK   90  A    between atoms: _217  and  _218
REMARK   91  A    between atoms: _221  and  _223
REMARK   92  A    between atoms: _223  and  _224
REMARK   93  A    between atoms: _226  and  _228
REMARK   94  A    between atoms: _228  and  _229
REMARK   95  A    between atoms: _228  and  _231
REMARK   96  A    between atoms: _231  and  _232
REMARK   97  A    between atoms: _232  and  _233
REMARK   98  A    between atoms: _233  and  _234
REMARK   99  A    between atoms: _243  and  _245
REMARK  100  A    between atoms: _245  and  _246
REMARK  101  A    between atoms: _245  and  _248
REMARK  102  A    between atoms: _248  and  _249
REMARK  103  A    between atoms: _254  and  _256
REMARK  104  A    between atoms: _256  and  _257
REMARK  105  A    between atoms: _256  and  _259
REMARK  106  A    between atoms: _259  and  _260
REMARK  107  A    between atoms: _260  and  _261
REMARK  108  A    between atoms: _261  and  _262
REMARK  109  A    between atoms: _271  and  _273
REMARK  110  A    between atoms: _273  and  _274
REMARK  111  A    between atoms: _273  and  _276
REMARK  112  A    between atoms: _276  and  _277
REMARK  113  A    between atoms: _280  and  _282
REMARK  114  A    between atoms: _282  and  _283
REMARK  115  A    between atoms: _282  and  _285
REMARK  116  A    between atoms: _285  and  _286
REMARK  117  A    between atoms: _289  and  _291
REMARK  118  A    between atoms: _291  and  _292
REMARK  119  A    between atoms: _291  and  _294
REMARK  120  A    between atoms: _294  and  _295
REMARK  121  A    between atoms: _298  and  _300
REMARK  122  A    between atoms: _300  and  _301
REMARK  123  A    between atoms: _300  and  _303
REMARK  124  A    between atoms: _303  and  _304
REMARK  125  A    between atoms: _307  and  _309
REMARK  126  A    between atoms: _309  and  _310
REMARK  127  A    between atoms: _309  and  _312
REMARK  128  A    between atoms: _312  and  _313
REMARK  129  A    between atoms: _316  and  _318
REMARK  130  A    between atoms: _318  and  _319
REMARK  131  A    between atoms: _321  and  _323
REMARK  132  A    between atoms: _323  and  _324
REMARK  133  A    between atoms: _327  and  _329
REMARK  134  A    between atoms: _329  and  _330
REMARK  135  A    between atoms: _329  and  _332
REMARK  136  A    between atoms: _332  and  _333
REMARK  137  A    between atoms: _336  and  _338
REMARK  138  A    between atoms: _338  and  _339
REMARK  139  A    between atoms: _338  and  _341
REMARK  140  A    between atoms: _341  and  _342
REMARK  141  A    between atoms: _345  and  _347
REMARK  142  A    between atoms: _347  and  _348
REMARK  143  A    between atoms: _347  and  _350
REMARK  144  A    between atoms: _350  and  _351
REMARK  145  A    between atoms: _354  and  _356
REMARK  146  A    between atoms: _356  and  _357
REMARK  147  A    between atoms: _356  and  _359
REMARK  148  A    between atoms: _362  and  _364
REMARK  149  A    between atoms: _364  and  _365
REMARK  150  A    between atoms: _364  and  _367
REMARK  151  A    between atoms: _367  and  _368
REMARK  152  A    between atoms: _368  and  _369
REMARK  153  A    between atoms: _369  and  _370
REMARK  154  A    between atoms: _370  and  _371
REMARK  155  A    between atoms: _375  and  _377
REMARK  156  A    between atoms: _377  and  _378
REMARK  157  A    between atoms: _377  and  _380
REMARK  158  A    between atoms: _380  and  _381
REMARK  159  A    between atoms: _381  and  _382
REMARK  160  A    between atoms: _384  and  _386
REMARK  161  A    between atoms: _386  and  _387
REMARK  162  A    between atoms: _386  and  _389
REMARK  163  A    between atoms: _389  and  _390
REMARK  164  A    between atoms: _393  and  _395
REMARK  165  A    between atoms: _395  and  _396
REMARK  166  A    between atoms: _398  and  _400
REMARK  167  A    between atoms: _400  and  _401
REMARK  168  A    between atoms: _403  and  _405
REMARK  169  A    between atoms: _405  and  _406
REMARK  170  A    between atoms: _405  and  _408
REMARK  171  A    between atoms: _408  and  _409
REMARK  172  A    between atoms: _412  and  _414
REMARK  173  A    between atoms: _414  and  _415
REMARK  174  A    between atoms: _417  and  _419
REMARK  175  A    between atoms: _419  and  _420
REMARK  176  A    between atoms: _422  and  _424
REMARK  177  A    between atoms: _424  and  _425
REMARK  178  A    between atoms: _424  and  _427
REMARK  179  A    between atoms: _427  and  _428
REMARK  180  A    between atoms: _431  and  _433
REMARK  181  A    between atoms: _433  and  _434
REMARK  182  A    between atoms: _433  and  _436
REMARK  183  A    between atoms: _439  and  _441
REMARK  184  A    between atoms: _441  and  _442
REMARK  185  A    between atoms: _441  and  _444
REMARK  186  A    between atoms: _444  and  _445
REMARK  187  A    between atoms: _449  and  _450
REMARK  188  A    between atoms: _455  and  _457
REMARK  189  A    between atoms: _457  and  _458
REMARK  190  A    between atoms: _457  and  _460
REMARK  191  A    between atoms: _460  and  _461
REMARK  192  A    between atoms: _465  and  _466
REMARK  193  A    between atoms: _471  and  _473
REMARK  194  A    between atoms: _473  and  _474
REMARK  195  A    between atoms: _473  and  _476
REMARK  196  A    between atoms: _479  and  _481
REMARK  197  A    between atoms: _481  and  _482
REMARK  198  A    between atoms: _481  and  _484
REMARK  199  A    between atoms: _484  and  _485
REMARK  200  A    between atoms: _490  and  _492
REMARK  201  A    between atoms: _492  and  _493
REMARK  202  A    between atoms: _492  and  _495
REMARK  203  A    between atoms: _495  and  _496
REMARK  204  A    between atoms: _499  and  _501
REMARK  205  A    between atoms: _501  and  _502
REMARK  206  A    between atoms: _501  and  _504
REMARK  207  A    between atoms: _504  and  _505
REMARK  208  A    between atoms: _508  and  _510
REMARK  209  A    between atoms: _510  and  _511
REMARK  210  A    between atoms: _513  and  _515
REMARK  211  A    between atoms: _515  and  _516
REMARK  212  A    between atoms: _515  and  _518
REMARK  213  A    between atoms: _518  and  _519
REMARK  214  A    between atoms: _519  and  _520
REMARK  215  A    between atoms: _520  and  _521
REMARK  216  A    between atoms: _530  and  _532
REMARK  217  A    between atoms: _532  and  _533
REMARK  218  A    between atoms: _532  and  _535
REMARK  219  A    between atoms: _535  and  _536
REMARK                            x       y       z     vdW  Elec       q    Type
REMARK                         _______ _______ _______ _____ _____    ______ ____
ROOT
ATOM      1  O   HOH     1     -20.148  15.114  36.712  0.00  0.00    +0.000 OA
ENDROOT
TORSDOF 0
REMARK  Name = ../refined-set-2016/1zpa/1zpa_pocket.pdb
REMARK  219 active torsions:
REMARK  status: ('A' for Active; 'I' for Inactive)
REMARK    1  A    between atoms: _1  and  _3
REMARK    2  A    between atoms: _3  and  _4
REMARK    3  A    between atoms: _3  and  _6
REMARK    4  A    between atoms: _6  and  _7
REMARK    5  A    between atoms: _7  and  _8
REMARK    6  A    between atoms: _8  and  _9
REMARK    7  A    between atoms: _18  and  _20
REMARK    8  A    between atoms: _20  and  _21
REMARK    9  A    between atoms: _20  and  _23
REMARK   10  A    between atoms: _23  and  _24
REMARK   11  A    between atoms: _27  and  _29
REMARK   12  A    between atoms: _29  and  _30
REMARK   13  A    between atoms: _29  and  _32
REMARK   14  A    between atoms: _32  and  _33
REMARK   15  A    between atoms: _36  and  _38
REMARK   16  A    between atoms: _38  and  _39
REMARK   17  A    between atoms: _38  and  _41
REMARK   18  A    between atoms: _41  and  _42
REMARK   19  A    between atoms: _45  and  _47
REMARK   20  A    between atoms: _47  and  _48
REMARK   21  A    between atoms: _47  and  _50
REMARK   22  A    between atoms: _50  and  _51
REMARK   23  A    between atoms: _54  and  _56
REMARK   24  A    between atoms: _56  and  _57
REMARK   25  A    between atoms: _59  and  _61
REMARK   26  A    between atoms: _61  and  _62
REMARK   27  A    between atoms: _65  and  _67
REMARK   28  A    between atoms: _67  and  _68
REMARK   29  A    between atoms: _67  and  _70
REMARK   30  A    between atoms: _70  and  _71
REMARK   31  A    between atoms: _74  and  _76
REMARK   32  A    between atoms: _76  and  _77
REMARK   33  A    between atoms: _76  and  _79
REMARK   34  A    between atoms: _79  and  _80
REMARK   35  A    between atoms: _83  and  _85
REMARK   36  A    between atoms: _85  and  _86
REMARK   37  A    between atoms: _85  and  _88
REMARK   38  A    between atoms: _88  and  _89
REMARK   39  A    between atoms: _92  and  _94
REMARK   40  A    between atoms: _94  and  _95
REMARK   41  A    between atoms: _94  and  _97
REMARK   42  A    between atoms: _100  and  _102
REMARK   43  A    between atoms: _102  and  _103
REMARK   44  A    between atoms: _102  and  _105
REMARK   45  A    between atoms: _105  and  _106
REMARK   46  A    between atoms: _106  and  _107
REMARK   47  A    between atoms: _109  and  _111
REMARK   48  A    between atoms: _111  and  _112
REMARK   49  A    between atoms: _111  and  _114
REMARK   50  A    between atoms: _114  and  _115
REMARK   51  A    between atoms: _118  and  _120
REMARK   52  A    between atoms: _120  and  _121
REMARK   53  A    between atoms: _123  and  _125
REMARK   54  A    between atoms: _125  and  _126
REMARK   55  A    between atoms: _128  and  _130
REMARK   56  A    between atoms: _130  and  _131
REMARK   57  A    between atoms: _130  and  _133
REMARK   58  A    between atoms: _133  and  _134
REMARK   59  A    between atoms: _137  and  _139
REMARK   60  A    between atoms: _139  and  _140
REMARK   61  A    between atoms: _142  and  _144
REMARK   62  A    between atoms: _144  and  _145
REMARK   63  A    between atoms: _147  and  _149
REMARK   64  A    between atoms: _149  and  _150
REMARK   65  A    between atoms: _149  and  _152
REMARK   66  A    between atoms: _152  and  _153
REMARK   67  A    between atoms: _159  and  _161
REMARK   68  A    between atoms: _161  and  _162
REMARK   69  A    between atoms: _161  and  _164
REMARK   70  A    between atoms: _164  and  _165
REMARK   71  A    between atoms: _168  and  _170
REMARK   72  A    between atoms: _170  and  _171
REMARK   73  A    between atoms: _170  and  _173
REMARK   74  A    between atoms: _173  and  _174
REMARK   75  A    between atoms: _177  and  _179
REMARK   76  A    between atoms: _179  and  _180
REMARK   77  A    between atoms: _179  and  _182
REMARK   78  A    between atoms: _182  and  _183
REMARK   79  A    between atoms: _187  and  _188
REMARK   80  A    between atoms: _193  and  _195
REMARK   81  A    between atoms: _195  and  _196
REMARK   82  A    between atoms: _195  and  _198
REMARK   83  A    between atoms: _201  and  _203
REMARK   84  A    between atoms: _203  and  _204
REMARK   85  A    between atoms: _203  and  _206
REMARK   86  A    between atoms: _206  and  _207
REMARK   87  A    between atoms: _212  and  _214
REMARK   88  A    between atoms: _214  and  _215
REMARK   89  A    between atoms: _214  and  _217
REMARK   90  A    between atoms: _217  and  _218
REMARK   91  A    between atoms: _221  and  _223
REMARK   92  A    between atoms: _223  and  _224
REMARK   93  A    between atoms: _226  and  _228
REMARK   94  A    between atoms: _228  and  _229
REMARK   95  A    between atoms: _228  and  _231
REMARK   96  A    between atoms: _231  and  _232
REMARK   97  A    between atoms: _232  and  _233
REMARK   98  A    between atoms: _233  and  _234
REMARK   99  A    between atoms: _243  and  _245
REMARK  100  A    between atoms: _245  and  _246
REMARK  101  A    between atoms: _245  and  _248
REMARK  102  A    between atoms: _248  and  _249
REMARK  103  A    between atoms: _254  and  _256
REMARK  104  A    between atoms: _256  and  _257
REMARK  105  A    between atoms: _256  and  _259
REMARK  106  A    between atoms: _259  and  _260
REMARK  107  A    between atoms: _260  and  _261
REMARK  108  A    between atoms: _261  and  _262
REMARK  109  A    between atoms: _271  and  _273
REMARK  110  A    between atoms: _273  and  _274
REMARK  111  A    between atoms: _273  and  _276
REMARK  112  A    between atoms: _276  and  _277
REMARK  113  A    between atoms: _280  and  _282
REMARK  114  A    between atoms: _282  and  _283
REMARK  115  A    between atoms: _282  and  _285
REMARK  116  A    between atoms: _285  and  _286
REMARK  117  A    between atoms: _289  and  _291
REMARK  118  A    between atoms: _291  and  _292
REMARK  119  A    between atoms: _291  and  _294
REMARK  120  A    between atoms: _294  and  _295
REMARK  121  A    between atoms: _298  and  _300
REMARK  122  A    between atoms: _300  and  _301
REMARK  123  A    between atoms: _300  and  _303
REMARK  124  A    between atoms: _303  and  _304
REMARK  125  A    between atoms: _307  and  _309
REMARK  126  A    between atoms: _309  and  _310
REMARK  127  A    between atoms: _309  and  _312
REMARK  128  A    between atoms: _312  and  _313
REMARK  129  A    between atoms: _316  and  _318
REMARK  130  A    between atoms: _318  and  _319
REMARK  131  A    between atoms: _321  and  _323
REMARK  132  A    between atoms: _323  and  _324
REMARK  133  A    between atoms: _327  and  _329
REMARK  134  A    between atoms: _329  and  _330
REMARK  135  A    between atoms: _329  and  _332
REMARK  136  A    between atoms: _332  and  _333
REMARK  137  A    between atoms: _336  and  _338
REMARK  138  A    between atoms: _338  and  _339
REMARK  139  A    between atoms: _338  and  _341
REMARK  140  A    between atoms: _341  and  _342
REMARK  141  A    between atoms: _345  and  _347
REMARK  142  A    between atoms: _347  and  _348
REMARK  143  A    between atoms: _347  and  _350
REMARK  144  A    between atoms: _350  and  _351
REMARK  145  A    between atoms: _354  and  _356
REMARK  146  A    between atoms: _356  and  _357
REMARK  147  A    between atoms: _356  and  _359
REMARK  148  A    between atoms: _362  and  _364
REMARK  149  A    between atoms: _364  and  _365
REMARK  150  A    between atoms: _364  and  _367
REMARK  151  A    between atoms: _367  and  _368
REMARK  152  A    between atoms: _368  and  _369
REMARK  153  A    between atoms: _369  and  _370
REMARK  154  A    between atoms: _370  and  _371
REMARK  155  A    between atoms: _375  and  _377
REMARK  156  A    between atoms: _377  and  _378
REMARK  157  A    between atoms: _377  and  _380
REMARK  158  A    between atoms: _380  and  _381
REMARK  159  A    between atoms: _381  and  _382
REMARK  160  A    between atoms: _384  and  _386
REMARK  161  A    between atoms: _386  and  _387
REMARK  162  A    between atoms: _386  and  _389
REMARK  163  A    between atoms: _389  and  _390
REMARK  164  A    between atoms: _393  and  _395
REMARK  165  A    between atoms: _395  and  _396
REMARK  166  A    between atoms: _398  and  _400
REMARK  167  A    between atoms: _400  and  _401
REMARK  168  A    between atoms: _403  and  _405
REMARK  169  A    between atoms: _405  and  _406
REMARK  170  A    between atoms: _405  and  _408
REMARK  171  A    between atoms: _408  and  _409
REMARK  172  A    between atoms: _412  and  _414
REMARK  173  A    between atoms: _414  and  _415
REMARK  174  A    between atoms: _417  and  _419
REMARK  175  A    between atoms: _419  and  _420
REMARK  176  A    between atoms: _422  and  _424
REMARK  177  A    between atoms: _424  and  _425
REMARK  178  A    between atoms: _424  and  _427
REMARK  179  A    between atoms: _427  and  _428
REMARK  180  A    between atoms: _431  and  _433
REMARK  181  A    between atoms: _433  and  _434
REMARK  182  A    between atoms: _433  and  _436
REMARK  183  A    between atoms: _439  and  _441
REMARK  184  A    between atoms: _441  and  _442
REMARK  185  A    between atoms: _441  and  _444
REMARK  186  A    between atoms: _444  and  _445
REMARK  187  A    between atoms: _449  and  _450
REMARK  188  A    between atoms: _455  and  _457
REMARK  189  A    between atoms: _457  and  _458
REMARK  190  A    between atoms: _457  and  _460
REMARK  191  A    between atoms: _460  and  _461
REMARK  192  A    between atoms: _465  and  _466
REMARK  193  A    between atoms: _471  and  _473
REMARK  194  A    between atoms: _473  and  _474
REMARK  195  A    between atoms: _473  and  _476
REMARK  196  A    between atoms: _479  and  _481
REMARK  197  A    between atoms: _481  and  _482
REMARK  198  A    between atoms: _481  and  _484
REMARK  199  A    between atoms: _484  and  _485
REMARK  200  A    between atoms: _490  and  _492
REMARK  201  A    between atoms: _492  and  _493
REMARK  202  A    between atoms: _492  and  _495
REMARK  203  A    between atoms: _495  and  _496
REMARK  204  A    between atoms: _499  and  _501
REMARK  205  A    between atoms: _501  and  _502
REMARK  206  A    between atoms: _501  and  _504
REMARK  207  A    between atoms: _504  and  _505
REMARK  208  A    between atoms: _508  and  _510
REMARK  209  A    between atoms: _510  and  _511
REMARK  210  A    between atoms: _513  and  _515
REMARK  211  A    between atoms: _515  and  _516
REMARK  212  A    between atoms: _515  and  _518
REMARK  213  A    between atoms: _518  and  _519
REMARK  214  A    between atoms: _519  and  _520
REMARK  215  A    between atoms: _520  and  _521
REMARK  216  A    between atoms: _530  and  _532
REMARK  217  A    between atoms: _532  and  _533
REMARK  218  A    between atoms: _532  and  _535
REMARK  219  A    between atoms: _535  and  _536
REMARK                            x       y       z     vdW  Elec       q    Type
REMARK                         _______ _______ _______ _____ _____    ______ ____
ROOT
ATOM      1  O   HOH     1      -0.595  11.098  29.600  0.00  0.00    +0.000 OA
ENDROOT
TORSDOF 0
REMARK  Name = ../refined-set-2016/1zpa/1zpa_pocket.pdb
REMARK  219 active torsions:
REMARK  status: ('A' for Active; 'I' for Inactive)
REMARK    1  A    between atoms: _1  and  _3
REMARK    2  A    between atoms: _3  and  _4
REMARK    3  A    between atoms: _3  and  _6
REMARK    4  A    between atoms: _6  and  _7
REMARK    5  A    between atoms: _7  and  _8
REMARK    6  A    between atoms: _8  and  _9
REMARK    7  A    between atoms: _18  and  _20
REMARK    8  A    between atoms: _20  and  _21
REMARK    9  A    between atoms: _20  and  _23
REMARK   10  A    between atoms: _23  and  _24
REMARK   11  A    between atoms: _27  and  _29
REMARK   12  A    between atoms: _29  and  _30
REMARK   13  A    between atoms: _29  and  _32
REMARK   14  A    between atoms: _32  and  _33
REMARK   15  A    between atoms: _36  and  _38
REMARK   16  A    between atoms: _38  and  _39
REMARK   17  A    between atoms: _38  and  _41
REMARK   18  A    between atoms: _41  and  _42
REMARK   19  A    between atoms: _45  and  _47
REMARK   20  A    between atoms: _47  and  _48
REMARK   21  A    between atoms: _47  and  _50
REMARK   22  A    between atoms: _50  and  _51
REMARK   23  A    between atoms: _54  and  _56
REMARK   24  A    between atoms: _56  and  _57
REMARK   25  A    between atoms: _59  and  _61
REMARK   26  A    between atoms: _61  and  _62
REMARK   27  A    between atoms: _65  and  _67
REMARK   28  A    between atoms: _67  and  _68
REMARK   29  A    between atoms: _67  and  _70
REMARK   30  A    between atoms: _70  and  _71
REMARK   31  A    between atoms: _74  and  _76
REMARK   32  A    between atoms: _76  and  _77
REMARK   33  A    between atoms: _76  and  _79
REMARK   34  A    between atoms: _79  and  _80
REMARK   35  A    between atoms: _83  and  _85
REMARK   36  A    between atoms: _85  and  _86
REMARK   37  A    between atoms: _85  and  _88
REMARK   38  A    between atoms: _88  and  _89
REMARK   39  A    between atoms: _92  and  _94
REMARK   40  A    between atoms: _94  and  _95
REMARK   41  A    between atoms: _94  and  _97
REMARK   42  A    between atoms: _100  and  _102
REMARK   43  A    between atoms: _102  and  _103
REMARK   44  A    between atoms: _102  and  _105
REMARK   45  A    between atoms: _105  and  _106
REMARK   46  A    between atoms: _106  and  _107
REMARK   47  A    between atoms: _109  and  _111
REMARK   48  A    between atoms: _111  and  _112
REMARK   49  A    between atoms: _111  and  _114
REMARK   50  A    between atoms: _114  and  _115
REMARK   51  A    between atoms: _118  and  _120
REMARK   52  A    between atoms: _120  and  _121
REMARK   53  A    between atoms: _123  and  _125
REMARK   54  A    between atoms: _125  and  _126
REMARK   55  A    between atoms: _128  and  _130
REMARK   56  A    between atoms: _130  and  _131
REMARK   57  A    between atoms: _130  and  _133
REMARK   58  A    between atoms: _133  and  _134
REMARK   59  A    between atoms: _137  and  _139
REMARK   60  A    between atoms: _139  and  _140
REMARK   61  A    between atoms: _142  and  _144
REMARK   62  A    between atoms: _144  and  _145
REMARK   63  A    between atoms: _147  and  _149
REMARK   64  A    between atoms: _149  and  _150
REMARK   65  A    between atoms: _149  and  _152
REMARK   66  A    between atoms: _152  and  _153
REMARK   67  A    between atoms: _159  and  _161
REMARK   68  A    between atoms: _161  and  _162
REMARK   69  A    between atoms: _161  and  _164
REMARK   70  A    between atoms: _164  and  _165
REMARK   71  A    between atoms: _168  and  _170
REMARK   72  A    between atoms: _170  and  _171
REMARK   73  A    between atoms: _170  and  _173
REMARK   74  A    between atoms: _173  and  _174
REMARK   75  A    between atoms: _177  and  _179
REMARK   76  A    between atoms: _179  and  _180
REMARK   77  A    between atoms: _179  and  _182
REMARK   78  A    between atoms: _182  and  _183
REMARK   79  A    between atoms: _187  and  _188
REMARK   80  A    between atoms: _193  and  _195
REMARK   81  A    between atoms: _195  and  _196
REMARK   82  A    between atoms: _195  and  _198
REMARK   83  A    between atoms: _201  and  _203
REMARK   84  A    between atoms: _203  and  _204
REMARK   85  A    between atoms: _203  and  _206
REMARK   86  A    between atoms: _206  and  _207
REMARK   87  A    between atoms: _212  and  _214
REMARK   88  A    between atoms: _214  and  _215
REMARK   89  A    between atoms: _214  and  _217
REMARK   90  A    between atoms: _217  and  _218
REMARK   91  A    between atoms: _221  and  _223
REMARK   92  A    between atoms: _223  and  _224
REMARK   93  A    between atoms: _226  and  _228
REMARK   94  A    between atoms: _228  and  _229
REMARK   95  A    between atoms: _228  and  _231
REMARK   96  A    between atoms: _231  and  _232
REMARK   97  A    between atoms: _232  and  _233
REMARK   98  A    between atoms: _233  and  _234
REMARK   99  A    between atoms: _243  and  _245
REMARK  100  A    between atoms: _245  and  _246
REMARK  101  A    between atoms: _245  and  _248
REMARK  102  A    between atoms: _248  and  _249
REMARK  103  A    between atoms: _254  and  _256
REMARK  104  A    between atoms: _256  and  _257
REMARK  105  A    between atoms: _256  and  _259
REMARK  106  A    between atoms: _259  and  _260
REMARK  107  A    between atoms: _260  and  _261
REMARK  108  A    between atoms: _261  and  _262
REMARK  109  A    between atoms: _271  and  _273
REMARK  110  A    between atoms: _273  and  _274
REMARK  111  A    between atoms: _273  and  _276
REMARK  112  A    between atoms: _276  and  _277
REMARK  113  A    between atoms: _280  and  _282
REMARK  114  A    between atoms: _282  and  _283
REMARK  115  A    between atoms: _282  and  _285
REMARK  116  A    between atoms: _285  and  _286
REMARK  117  A    between atoms: _289  and  _291
REMARK  118  A    between atoms: _291  and  _292
REMARK  119  A    between atoms: _291  and  _294
REMARK  120  A    between atoms: _294  and  _295
REMARK  121  A    between atoms: _298  and  _300
REMARK  122  A    between atoms: _300  and  _301
REMARK  123  A    between atoms: _300  and  _303
REMARK  124  A    between atoms: _303  and  _304
REMARK  125  A    between atoms: _307  and  _309
REMARK  126  A    between atoms: _309  and  _310
REMARK  127  A    between atoms: _309  and  _312
REMARK  128  A    between atoms: _312  and  _313
REMARK  129  A    between atoms: _316  and  _318
REMARK  130  A    between atoms: _318  and  _319
REMARK  131  A    between atoms: _321  and  _323
REMARK  132  A    between atoms: _323  and  _324
REMARK  133  A    between atoms: _327  and  _329
REMARK  134  A    between atoms: _329  and  _330
REMARK  135  A    between atoms: _329  and  _332
REMARK  136  A    between atoms: _332  and  _333
REMARK  137  A    between atoms: _336  and  _338
REMARK  138  A    between atoms: _338  and  _339
REMARK  139  A    between atoms: _338  and  _341
REMARK  140  A    between atoms: _341  and  _342
REMARK  141  A    between atoms: _345  and  _347
REMARK  142  A    between atoms: _347  and  _348
REMARK  143  A    between atoms: _347  and  _350
REMARK  144  A    between atoms: _350  and  _351
REMARK  145  A    between atoms: _354  and  _356
REMARK  146  A    between atoms: _356  and  _357
REMARK  147  A    between atoms: _356  and  _359
REMARK  148  A    between atoms: _362  and  _364
REMARK  149  A    between atoms: _364  and  _365
REMARK  150  A    between atoms: _364  and  _367
REMARK  151  A    between atoms: _367  and  _368
REMARK  152  A    between atoms: _368  and  _369
REMARK  153  A    between atoms: _369  and  _370
REMARK  154  A    between atoms: _370  and  _371
REMARK  155  A    between atoms: _375  and  _377
REMARK  156  A    between atoms: _377  and  _378
REMARK  157  A    between atoms: _377  and  _380
REMARK  158  A    between atoms: _380  and  _381
REMARK  159  A    between atoms: _381  and  _382
REMARK  160  A    between atoms: _384  and  _386
REMARK  161  A    between atoms: _386  and  _387
REMARK  162  A    between atoms: _386  and  _389
REMARK  163  A    between atoms: _389  and  _390
REMARK  164  A    between atoms: _393  and  _395
REMARK  165  A    between atoms: _395  and  _396
REMARK  166  A    between atoms: _398  and  _400
REMARK  167  A    between atoms: _400  and  _401
REMARK  168  A    between atoms: _403  and  _405
REMARK  169  A    between atoms: _405  and  _406
REMARK  170  A    between atoms: _405  and  _408
REMARK  171  A    between atoms: _408  and  _409
REMARK  172  A    between atoms: _412  and  _414
REMARK  173  A    between atoms: _414  and  _415
REMARK  174  A    between atoms: _417  and  _419
REMARK  175  A    between atoms: _419  and  _420
REMARK  176  A    between atoms: _422  and  _424
REMARK  177  A    between atoms: _424  and  _425
REMARK  178  A    between atoms: _424  and  _427
REMARK  179  A    between atoms: _427  and  _428
REMARK  180  A    between atoms: _431  and  _433
REMARK  181  A    between atoms: _433  and  _434
REMARK  182  A    between atoms: _433  and  _436
REMARK  183  A    between atoms: _439  and  _441
REMARK  184  A    between atoms: _441  and  _442
REMARK  185  A    between atoms: _441  and  _444
REMARK  186  A    between atoms: _444  and  _445
REMARK  187  A    between atoms: _449  and  _450
REMARK  188  A    between atoms: _455  and  _457
REMARK  189  A    between atoms: _457  and  _458
REMARK  190  A    between atoms: _457  and  _460
REMARK  191  A    between atoms: _460  and  _461
REMARK  192  A    between atoms: _465  and  _466
REMARK  193  A    between atoms: _471  and  _473
REMARK  194  A    between atoms: _473  and  _474
REMARK  195  A    between atoms: _473  and  _476
REMARK  196  A    between atoms: _479  and  _481
REMARK  197  A    between atoms: _481  and  _482
REMARK  198  A    between atoms: _481  and  _484
REMARK  199  A    between atoms: _484  and  _485
REMARK  200  A    between atoms: _490  and  _492
REMARK  201  A    between atoms: _492  and  _493
REMARK  202  A    between atoms: _492  and  _495
REMARK  203  A    between atoms: _495  and  _496
REMARK  204  A    between atoms: _499  and  _501
REMARK  205  A    between atoms: _501  and  _502
REMARK  206  A    between atoms: _501  and  _504
REMARK  207  A    between atoms: _504  and  _505
REMARK  208  A    between atoms: _508  and  _510
REMARK  209  A    between atoms: _510  and  _511
REMARK  210  A    between atoms: _513  and  _515
REMARK  211  A    between atoms: _515  and  _516
REMARK  212  A    between atoms: _515  and  _518
REMARK  213  A    between atoms: _518  and  _519
REMARK  214  A    between atoms: _519  and  _520
REMARK  215  A    between atoms: _520  and  _521
REMARK  216  A    between atoms: _530  and  _532
REMARK  217  A    between atoms: _532  and  _533
REMARK  218  A    between atoms: _532  and  _535
REMARK  219  A    between atoms: _535  and  _536
REMARK                            x       y       z     vdW  Elec       q    Type
REMARK                         _______ _______ _______ _____ _____    ______ ____
ROOT
ATOM      1  O   HOH     1      -6.990  23.728  15.621  0.00  0.00    +0.000 OA
ENDROOT
TORSDOF 0
