REMARK  Name = ../refined-set-2016/1d4i/1d4i_pocket.pdb
REMARK  248 active torsions:
REMARK  status: ('A' for Active; 'I' for Inactive)
REMARK    1  A    between atoms: _1  and  _3
REMARK    2  A    between atoms: _3  and  _4
REMARK    3  A    between atoms: _3  and  _6
REMARK    4  A    between atoms: _6  and  _7
REMARK    5  A    between atoms: _7  and  _8
REMARK    6  A    between atoms: _8  and  _9
REMARK    7  A    between atoms: _18  and  _20
REMARK    8  A    between atoms: _20  and  _21
REMARK    9  A    between atoms: _20  and  _23
REMARK   10  A    between atoms: _23  and  _24
REMARK   11  A    between atoms: _27  and  _29
REMARK   12  A    between atoms: _29  and  _30
REMARK   13  A    between atoms: _29  and  _32
REMARK   14  A    between atoms: _32  and  _33
REMARK   15  A    between atoms: _36  and  _38
REMARK   16  A    between atoms: _38  and  _39
REMARK   17  A    between atoms: _38  and  _41
REMARK   18  A    between atoms: _41  and  _42
REMARK   19  A    between atoms: _45  and  _47
REMARK   20  A    between atoms: _47  and  _48
REMARK   21  A    between atoms: _47  and  _50
REMARK   22  A    between atoms: _50  and  _51
REMARK   23  A    between atoms: _54  and  _56
REMARK   24  A    between atoms: _56  and  _57
REMARK   25  A    between atoms: _56  and  _59
REMARK   26  A    between atoms: _59  and  _60
REMARK   27  A    between atoms: _63  and  _65
REMARK   28  A    between atoms: _65  and  _66
REMARK   29  A    between atoms: _68  and  _70
REMARK   30  A    between atoms: _70  and  _71
REMARK   31  A    between atoms: _74  and  _76
REMARK   32  A    between atoms: _76  and  _77
REMARK   33  A    between atoms: _76  and  _79
REMARK   34  A    between atoms: _79  and  _80
REMARK   35  A    between atoms: _83  and  _85
REMARK   36  A    between atoms: _85  and  _86
REMARK   37  A    between atoms: _85  and  _88
REMARK   38  A    between atoms: _88  and  _89
REMARK   39  A    between atoms: _92  and  _94
REMARK   40  A    between atoms: _94  and  _95
REMARK   41  A    between atoms: _94  and  _97
REMARK   42  A    between atoms: _97  and  _98
REMARK   43  A    between atoms: _101  and  _103
REMARK   44  A    between atoms: _103  and  _104
REMARK   45  A    between atoms: _103  and  _106
REMARK   46  A    between atoms: _109  and  _111
REMARK   47  A    between atoms: _111  and  _112
REMARK   48  A    between atoms: _111  and  _114
REMARK   49  A    between atoms: _114  and  _115
REMARK   50  A    between atoms: _118  and  _120
REMARK   51  A    between atoms: _120  and  _121
REMARK   52  A    between atoms: _120  and  _123
REMARK   53  A    between atoms: _123  and  _124
REMARK   54  A    between atoms: _124  and  _125
REMARK   55  A    between atoms: _125  and  _126
REMARK   56  A    between atoms: _126  and  _127
REMARK   57  A    between atoms: _131  and  _133
REMARK   58  A    between atoms: _133  and  _134
REMARK   59  A    between atoms: _133  and  _136
REMARK   60  A    between atoms: _136  and  _137
REMARK   61  A    between atoms: _137  and  _138
REMARK   62  A    between atoms: _140  and  _142
REMARK   63  A    between atoms: _142  and  _143
REMARK   64  A    between atoms: _142  and  _145
REMARK   65  A    between atoms: _145  and  _146
REMARK   66  A    between atoms: _149  and  _151
REMARK   67  A    between atoms: _151  and  _152
REMARK   68  A    between atoms: _154  and  _156
REMARK   69  A    between atoms: _156  and  _157
REMARK   70  A    between atoms: _159  and  _161
REMARK   71  A    between atoms: _161  and  _162
REMARK   72  A    between atoms: _161  and  _164
REMARK   73  A    between atoms: _164  and  _165
REMARK   74  A    between atoms: _168  and  _170
REMARK   75  A    between atoms: _170  and  _171
REMARK   76  A    between atoms: _173  and  _175
REMARK   77  A    between atoms: _175  and  _176
REMARK   78  A    between atoms: _178  and  _180
REMARK   79  A    between atoms: _180  and  _181
REMARK   80  A    between atoms: _180  and  _183
REMARK   81  A    between atoms: _183  and  _184
REMARK   82  A    between atoms: _190  and  _192
REMARK   83  A    between atoms: _192  and  _193
REMARK   84  A    between atoms: _192  and  _195
REMARK   85  A    between atoms: _195  and  _196
REMARK   86  A    between atoms: _199  and  _201
REMARK   87  A    between atoms: _201  and  _202
REMARK   88  A    between atoms: _201  and  _204
REMARK   89  A    between atoms: _207  and  _209
REMARK   90  A    between atoms: _209  and  _210
REMARK   91  A    between atoms: _209  and  _212
REMARK   92  A    between atoms: _212  and  _213
REMARK   93  A    between atoms: _216  and  _218
REMARK   94  A    between atoms: _218  and  _219
REMARK   95  A    between atoms: _218  and  _221
REMARK   96  A    between atoms: _221  and  _222
REMARK   97  A    between atoms: _226  and  _227
REMARK   98  A    between atoms: _232  and  _234
REMARK   99  A    between atoms: _234  and  _235
REMARK  100  A    between atoms: _234  and  _237
REMARK  101  A    between atoms: _240  and  _242
REMARK  102  A    between atoms: _242  and  _243
REMARK  103  A    between atoms: _242  and  _245
REMARK  104  A    between atoms: _245  and  _246
REMARK  105  A    between atoms: _251  and  _253
REMARK  106  A    between atoms: _253  and  _254
REMARK  107  A    between atoms: _253  and  _256
REMARK  108  A    between atoms: _256  and  _257
REMARK  109  A    between atoms: _260  and  _262
REMARK  110  A    between atoms: _262  and  _263
REMARK  111  A    between atoms: _262  and  _265
REMARK  112  A    between atoms: _265  and  _266
REMARK  113  A    between atoms: _269  and  _271
REMARK  114  A    between atoms: _271  and  _272
REMARK  115  A    between atoms: _274  and  _276
REMARK  116  A    between atoms: _276  and  _277
REMARK  117  A    between atoms: _276  and  _279
REMARK  118  A    between atoms: _279  and  _280
REMARK  119  A    between atoms: _280  and  _281
REMARK  120  A    between atoms: _281  and  _282
REMARK  121  A    between atoms: _291  and  _293
REMARK  122  A    between atoms: _293  and  _294
REMARK  123  A    between atoms: _293  and  _296
REMARK  124  A    between atoms: _296  and  _297
REMARK  125  A    between atoms: _302  and  _304
REMARK  126  A    between atoms: _304  and  _305
REMARK  127  A    between atoms: _304  and  _307
REMARK  128  A    between atoms: _307  and  _308
REMARK  129  A    between atoms: _308  and  _309
REMARK  130  A    between atoms: _309  and  _310
REMARK  131  A    between atoms: _319  and  _321
REMARK  132  A    between atoms: _321  and  _322
REMARK  133  A    between atoms: _321  and  _324
REMARK  134  A    between atoms: _324  and  _325
REMARK  135  A    between atoms: _328  and  _330
REMARK  136  A    between atoms: _330  and  _331
REMARK  137  A    between atoms: _330  and  _333
REMARK  138  A    between atoms: _333  and  _334
REMARK  139  A    between atoms: _337  and  _339
REMARK  140  A    between atoms: _339  and  _340
REMARK  141  A    between atoms: _339  and  _342
REMARK  142  A    between atoms: _342  and  _343
REMARK  143  A    between atoms: _346  and  _348
REMARK  144  A    between atoms: _348  and  _349
REMARK  145  A    between atoms: _348  and  _351
REMARK  146  A    between atoms: _351  and  _352
REMARK  147  A    between atoms: _355  and  _357
REMARK  148  A    between atoms: _357  and  _358
REMARK  149  A    between atoms: _357  and  _360
REMARK  150  A    between atoms: _360  and  _361
REMARK  151  A    between atoms: _364  and  _366
REMARK  152  A    between atoms: _366  and  _367
REMARK  153  A    between atoms: _369  and  _371
REMARK  154  A    between atoms: _371  and  _372
REMARK  155  A    between atoms: _375  and  _377
REMARK  156  A    between atoms: _377  and  _378
REMARK  157  A    between atoms: _377  and  _380
REMARK  158  A    between atoms: _380  and  _381
REMARK  159  A    between atoms: _384  and  _386
REMARK  160  A    between atoms: _386  and  _387
REMARK  161  A    between atoms: _386  and  _389
REMARK  162  A    between atoms: _389  and  _390
REMARK  163  A    between atoms: _393  and  _395
REMARK  164  A    between atoms: _395  and  _396
REMARK  165  A    between atoms: _395  and  _398
REMARK  166  A    between atoms: _398  and  _399
REMARK  167  A    between atoms: _402  and  _404
REMARK  168  A    between atoms: _404  and  _405
REMARK  169  A    between atoms: _404  and  _407
REMARK  170  A    between atoms: _410  and  _412
REMARK  171  A    between atoms: _412  and  _413
REMARK  172  A    between atoms: _412  and  _415
REMARK  173  A    between atoms: _415  and  _416
REMARK  174  A    between atoms: _419  and  _421
REMARK  175  A    between atoms: _421  and  _422
REMARK  176  A    between atoms: _421  and  _424
REMARK  177  A    between atoms: _424  and  _425
REMARK  178  A    between atoms: _425  and  _426
REMARK  179  A    between atoms: _426  and  _427
REMARK  180  A    between atoms: _427  and  _428
REMARK  181  A    between atoms: _432  and  _434
REMARK  182  A    between atoms: _434  and  _435
REMARK  183  A    between atoms: _434  and  _437
REMARK  184  A    between atoms: _437  and  _438
REMARK  185  A    between atoms: _438  and  _439
REMARK  186  A    between atoms: _441  and  _443
REMARK  187  A    between atoms: _443  and  _444
REMARK  188  A    between atoms: _443  and  _446
REMARK  189  A    between atoms: _446  and  _447
REMARK  190  A    between atoms: _450  and  _452
REMARK  191  A    between atoms: _452  and  _453
REMARK  192  A    between atoms: _455  and  _457
REMARK  193  A    between atoms: _457  and  _458
REMARK  194  A    between atoms: _460  and  _462
REMARK  195  A    between atoms: _462  and  _463
REMARK  196  A    between atoms: _462  and  _465
REMARK  197  A    between atoms: _465  and  _466
REMARK  198  A    between atoms: _469  and  _471
REMARK  199  A    between atoms: _471  and  _472
REMARK  200  A    between atoms: _474  and  _476
REMARK  201  A    between atoms: _476  and  _477
REMARK  202  A    between atoms: _479  and  _481
REMARK  203  A    between atoms: _481  and  _482
REMARK  204  A    between atoms: _481  and  _484
REMARK  205  A    between atoms: _484  and  _485
REMARK  206  A    between atoms: _491  and  _493
REMARK  207  A    between atoms: _493  and  _494
REMARK  208  A    between atoms: _493  and  _496
REMARK  209  A    between atoms: _496  and  _497
REMARK  210  A    between atoms: _500  and  _502
REMARK  211  A    between atoms: _502  and  _503
REMARK  212  A    between atoms: _502  and  _505
REMARK  213  A    between atoms: _508  and  _510
REMARK  214  A    between atoms: _510  and  _511
REMARK  215  A    between atoms: _510  and  _513
REMARK  216  A    between atoms: _513  and  _514
REMARK  217  A    between atoms: _517  and  _519
REMARK  218  A    between atoms: _519  and  _520
REMARK  219  A    between atoms: _519  and  _522
REMARK  220  A    between atoms: _522  and  _523
REMARK  221  A    between atoms: _527  and  _528
REMARK  222  A    between atoms: _533  and  _535
REMARK  223  A    between atoms: _535  and  _536
REMARK  224  A    between atoms: _535  and  _538
REMARK  225  A    between atoms: _541  and  _543
REMARK  226  A    between atoms: _543  and  _544
REMARK  227  A    between atoms: _543  and  _546
REMARK  228  A    between atoms: _546  and  _547
REMARK  229  A    between atoms: _552  and  _554
REMARK  230  A    between atoms: _554  and  _555
REMARK  231  A    between atoms: _554  and  _557
REMARK  232  A    between atoms: _557  and  _558
REMARK  233  A    between atoms: _561  and  _563
REMARK  234  A    between atoms: _563  and  _564
REMARK  235  A    between atoms: _563  and  _566
REMARK  236  A    between atoms: _566  and  _567
REMARK  237  A    between atoms: _570  and  _572
REMARK  238  A    between atoms: _572  and  _573
REMARK  239  A    between atoms: _575  and  _577
REMARK  240  A    between atoms: _577  and  _578
REMARK  241  A    between atoms: _577  and  _580
REMARK  242  A    between atoms: _580  and  _581
REMARK  243  A    between atoms: _581  and  _582
REMARK  244  A    between atoms: _582  and  _583
REMARK  245  A    between atoms: _592  and  _594
REMARK  246  A    between atoms: _594  and  _595
REMARK  247  A    between atoms: _594  and  _597
REMARK  248  A    between atoms: _597  and  _598
REMARK                            x       y       z     vdW  Elec       q    Type
REMARK                         _______ _______ _______ _____ _____    ______ ____
ROOT
ATOM      1  NE  ARG A   1      22.808  20.713   7.828  0.00  0.00    -0.265 N 
ATOM      2  CZ  ARG A   1      22.010  20.000   8.617  0.00  0.00    +0.342 C 
ATOM      3  NH2 ARG A   1      21.866  20.327   9.897  0.00  0.00    -0.292 N 
ATOM      4 HH21 ARG A   1      21.241  19.766  10.510  0.00  0.00    +0.255 HD
ATOM      5 HH22 ARG A   1      22.379  21.144  10.286  0.00  0.00    +0.255 HD
ATOM      6  NH1 ARG A   1      21.352  18.960   8.125  0.00  0.00    -0.292 N 
ATOM      7 HH11 ARG A   1      20.727  18.401   8.741  0.00  0.00    +0.255 HD
ATOM      8 HH12 ARG A   1      21.460  18.703   7.123  0.00  0.00    +0.255 HD
ATOM      9  HE  ARG A   1      22.893  20.423   6.833  0.00  0.00    +0.259 HD
ENDROOT
BRANCH   1  10
ATOM     10  CD  ARG A   1      23.572  21.875   8.266  0.00  0.00    +0.174 C 
BRANCH  10  11
ATOM     11  CG  ARG A   1      24.301  22.537   7.110  0.00  0.00    +0.045 C 
BRANCH  11  12
ATOM     12  CB  ARG A   1      24.905  23.858   7.536  0.00  0.00    +0.029 C 
BRANCH  12  13
ATOM     13  CA  ARG A   1      25.547  24.646   6.394  0.00  0.00    +0.133 C 
BRANCH  13  14
ATOM     14  N   ARG A   1      26.784  24.008   5.959  0.00  0.00    -0.239 NA
ATOM     15  H   ARG A   1      27.113  23.145   6.438  0.00  0.00    +0.142 HD
ENDBRANCH  13  14
BRANCH  13  16
ATOM     16  C   ARG A   1      25.887  26.051   6.870  0.00  0.00    +0.224 C 
ATOM     17  O   ARG A   1      26.862  26.249   7.593  0.00  0.00    -0.287 OA
ENDBRANCH  13  16
ENDBRANCH  12  13
ENDBRANCH  11  12
ENDBRANCH  10  11
ENDBRANCH   1  10
TORSDOF 6
REMARK  Name = ../refined-set-2016/1d4i/1d4i_pocket.pdb
REMARK  248 active torsions:
REMARK  status: ('A' for Active; 'I' for Inactive)
REMARK    1  A    between atoms: _1  and  _3
REMARK    2  A    between atoms: _3  and  _4
REMARK    3  A    between atoms: _3  and  _6
REMARK    4  A    between atoms: _6  and  _7
REMARK    5  A    between atoms: _7  and  _8
REMARK    6  A    between atoms: _8  and  _9
REMARK    7  A    between atoms: _18  and  _20
REMARK    8  A    between atoms: _20  and  _21
REMARK    9  A    between atoms: _20  and  _23
REMARK   10  A    between atoms: _23  and  _24
REMARK   11  A    between atoms: _27  and  _29
REMARK   12  A    between atoms: _29  and  _30
REMARK   13  A    between atoms: _29  and  _32
REMARK   14  A    between atoms: _32  and  _33
REMARK   15  A    between atoms: _36  and  _38
REMARK   16  A    between atoms: _38  and  _39
REMARK   17  A    between atoms: _38  and  _41
REMARK   18  A    between atoms: _41  and  _42
REMARK   19  A    between atoms: _45  and  _47
REMARK   20  A    between atoms: _47  and  _48
REMARK   21  A    between atoms: _47  and  _50
REMARK   22  A    between atoms: _50  and  _51
REMARK   23  A    between atoms: _54  and  _56
REMARK   24  A    between atoms: _56  and  _57
REMARK   25  A    between atoms: _56  and  _59
REMARK   26  A    between atoms: _59  and  _60
REMARK   27  A    between atoms: _63  and  _65
REMARK   28  A    between atoms: _65  and  _66
REMARK   29  A    between atoms: _68  and  _70
REMARK   30  A    between atoms: _70  and  _71
REMARK   31  A    between atoms: _74  and  _76
REMARK   32  A    between atoms: _76  and  _77
REMARK   33  A    between atoms: _76  and  _79
REMARK   34  A    between atoms: _79  and  _80
REMARK   35  A    between atoms: _83  and  _85
REMARK   36  A    between atoms: _85  and  _86
REMARK   37  A    between atoms: _85  and  _88
REMARK   38  A    between atoms: _88  and  _89
REMARK   39  A    between atoms: _92  and  _94
REMARK   40  A    between atoms: _94  and  _95
REMARK   41  A    between atoms: _94  and  _97
REMARK   42  A    between atoms: _97  and  _98
REMARK   43  A    between atoms: _101  and  _103
REMARK   44  A    between atoms: _103  and  _104
REMARK   45  A    between atoms: _103  and  _106
REMARK   46  A    between atoms: _109  and  _111
REMARK   47  A    between atoms: _111  and  _112
REMARK   48  A    between atoms: _111  and  _114
REMARK   49  A    between atoms: _114  and  _115
REMARK   50  A    between atoms: _118  and  _120
REMARK   51  A    between atoms: _120  and  _121
REMARK   52  A    between atoms: _120  and  _123
REMARK   53  A    between atoms: _123  and  _124
REMARK   54  A    between atoms: _124  and  _125
REMARK   55  A    between atoms: _125  and  _126
REMARK   56  A    between atoms: _126  and  _127
REMARK   57  A    between atoms: _131  and  _133
REMARK   58  A    between atoms: _133  and  _134
REMARK   59  A    between atoms: _133  and  _136
REMARK   60  A    between atoms: _136  and  _137
REMARK   61  A    between atoms: _137  and  _138
REMARK   62  A    between atoms: _140  and  _142
REMARK   63  A    between atoms: _142  and  _143
REMARK   64  A    between atoms: _142  and  _145
REMARK   65  A    between atoms: _145  and  _146
REMARK   66  A    between atoms: _149  and  _151
REMARK   67  A    between atoms: _151  and  _152
REMARK   68  A    between atoms: _154  and  _156
REMARK   69  A    between atoms: _156  and  _157
REMARK   70  A    between atoms: _159  and  _161
REMARK   71  A    between atoms: _161  and  _162
REMARK   72  A    between atoms: _161  and  _164
REMARK   73  A    between atoms: _164  and  _165
REMARK   74  A    between atoms: _168  and  _170
REMARK   75  A    between atoms: _170  and  _171
REMARK   76  A    between atoms: _173  and  _175
REMARK   77  A    between atoms: _175  and  _176
REMARK   78  A    between atoms: _178  and  _180
REMARK   79  A    between atoms: _180  and  _181
REMARK   80  A    between atoms: _180  and  _183
REMARK   81  A    between atoms: _183  and  _184
REMARK   82  A    between atoms: _190  and  _192
REMARK   83  A    between atoms: _192  and  _193
REMARK   84  A    between atoms: _192  and  _195
REMARK   85  A    between atoms: _195  and  _196
REMARK   86  A    between atoms: _199  and  _201
REMARK   87  A    between atoms: _201  and  _202
REMARK   88  A    between atoms: _201  and  _204
REMARK   89  A    between atoms: _207  and  _209
REMARK   90  A    between atoms: _209  and  _210
REMARK   91  A    between atoms: _209  and  _212
REMARK   92  A    between atoms: _212  and  _213
REMARK   93  A    between atoms: _216  and  _218
REMARK   94  A    between atoms: _218  and  _219
REMARK   95  A    between atoms: _218  and  _221
REMARK   96  A    between atoms: _221  and  _222
REMARK   97  A    between atoms: _226  and  _227
REMARK   98  A    between atoms: _232  and  _234
REMARK   99  A    between atoms: _234  and  _235
REMARK  100  A    between atoms: _234  and  _237
REMARK  101  A    between atoms: _240  and  _242
REMARK  102  A    between atoms: _242  and  _243
REMARK  103  A    between atoms: _242  and  _245
REMARK  104  A    between atoms: _245  and  _246
REMARK  105  A    between atoms: _251  and  _253
REMARK  106  A    between atoms: _253  and  _254
REMARK  107  A    between atoms: _253  and  _256
REMARK  108  A    between atoms: _256  and  _257
REMARK  109  A    between atoms: _260  and  _262
REMARK  110  A    between atoms: _262  and  _263
REMARK  111  A    between atoms: _262  and  _265
REMARK  112  A    between atoms: _265  and  _266
REMARK  113  A    between atoms: _269  and  _271
REMARK  114  A    between atoms: _271  and  _272
REMARK  115  A    between atoms: _274  and  _276
REMARK  116  A    between atoms: _276  and  _277
REMARK  117  A    between atoms: _276  and  _279
REMARK  118  A    between atoms: _279  and  _280
REMARK  119  A    between atoms: _280  and  _281
REMARK  120  A    between atoms: _281  and  _282
REMARK  121  A    between atoms: _291  and  _293
REMARK  122  A    between atoms: _293  and  _294
REMARK  123  A    between atoms: _293  and  _296
REMARK  124  A    between atoms: _296  and  _297
REMARK  125  A    between atoms: _302  and  _304
REMARK  126  A    between atoms: _304  and  _305
REMARK  127  A    between atoms: _304  and  _307
REMARK  128  A    between atoms: _307  and  _308
REMARK  129  A    between atoms: _308  and  _309
REMARK  130  A    between atoms: _309  and  _310
REMARK  131  A    between atoms: _319  and  _321
REMARK  132  A    between atoms: _321  and  _322
REMARK  133  A    between atoms: _321  and  _324
REMARK  134  A    between atoms: _324  and  _325
REMARK  135  A    between atoms: _328  and  _330
REMARK  136  A    between atoms: _330  and  _331
REMARK  137  A    between atoms: _330  and  _333
REMARK  138  A    between atoms: _333  and  _334
REMARK  139  A    between atoms: _337  and  _339
REMARK  140  A    between atoms: _339  and  _340
REMARK  141  A    between atoms: _339  and  _342
REMARK  142  A    between atoms: _342  and  _343
REMARK  143  A    between atoms: _346  and  _348
REMARK  144  A    between atoms: _348  and  _349
REMARK  145  A    between atoms: _348  and  _351
REMARK  146  A    between atoms: _351  and  _352
REMARK  147  A    between atoms: _355  and  _357
REMARK  148  A    between atoms: _357  and  _358
REMARK  149  A    between atoms: _357  and  _360
REMARK  150  A    between atoms: _360  and  _361
REMARK  151  A    between atoms: _364  and  _366
REMARK  152  A    between atoms: _366  and  _367
REMARK  153  A    between atoms: _369  and  _371
REMARK  154  A    between atoms: _371  and  _372
REMARK  155  A    between atoms: _375  and  _377
REMARK  156  A    between atoms: _377  and  _378
REMARK  157  A    between atoms: _377  and  _380
REMARK  158  A    between atoms: _380  and  _381
REMARK  159  A    between atoms: _384  and  _386
REMARK  160  A    between atoms: _386  and  _387
REMARK  161  A    between atoms: _386  and  _389
REMARK  162  A    between atoms: _389  and  _390
REMARK  163  A    between atoms: _393  and  _395
REMARK  164  A    between atoms: _395  and  _396
REMARK  165  A    between atoms: _395  and  _398
REMARK  166  A    between atoms: _398  and  _399
REMARK  167  A    between atoms: _402  and  _404
REMARK  168  A    between atoms: _404  and  _405
REMARK  169  A    between atoms: _404  and  _407
REMARK  170  A    between atoms: _410  and  _412
REMARK  171  A    between atoms: _412  and  _413
REMARK  172  A    between atoms: _412  and  _415
REMARK  173  A    between atoms: _415  and  _416
REMARK  174  A    between atoms: _419  and  _421
REMARK  175  A    between atoms: _421  and  _422
REMARK  176  A    between atoms: _421  and  _424
REMARK  177  A    between atoms: _424  and  _425
REMARK  178  A    between atoms: _425  and  _426
REMARK  179  A    between atoms: _426  and  _427
REMARK  180  A    between atoms: _427  and  _428
REMARK  181  A    between atoms: _432  and  _434
REMARK  182  A    between atoms: _434  and  _435
REMARK  183  A    between atoms: _434  and  _437
REMARK  184  A    between atoms: _437  and  _438
REMARK  185  A    between atoms: _438  and  _439
REMARK  186  A    between atoms: _441  and  _443
REMARK  187  A    between atoms: _443  and  _444
REMARK  188  A    between atoms: _443  and  _446
REMARK  189  A    between atoms: _446  and  _447
REMARK  190  A    between atoms: _450  and  _452
REMARK  191  A    between atoms: _452  and  _453
REMARK  192  A    between atoms: _455  and  _457
REMARK  193  A    between atoms: _457  and  _458
REMARK  194  A    between atoms: _460  and  _462
REMARK  195  A    between atoms: _462  and  _463
REMARK  196  A    between atoms: _462  and  _465
REMARK  197  A    between atoms: _465  and  _466
REMARK  198  A    between atoms: _469  and  _471
REMARK  199  A    between atoms: _471  and  _472
REMARK  200  A    between atoms: _474  and  _476
REMARK  201  A    between atoms: _476  and  _477
REMARK  202  A    between atoms: _479  and  _481
REMARK  203  A    between atoms: _481  and  _482
REMARK  204  A    between atoms: _481  and  _484
REMARK  205  A    between atoms: _484  and  _485
REMARK  206  A    between atoms: _491  and  _493
REMARK  207  A    between atoms: _493  and  _494
REMARK  208  A    between atoms: _493  and  _496
REMARK  209  A    between atoms: _496  and  _497
REMARK  210  A    between atoms: _500  and  _502
REMARK  211  A    between atoms: _502  and  _503
REMARK  212  A    between atoms: _502  and  _505
REMARK  213  A    between atoms: _508  and  _510
REMARK  214  A    between atoms: _510  and  _511
REMARK  215  A    between atoms: _510  and  _513
REMARK  216  A    between atoms: _513  and  _514
REMARK  217  A    between atoms: _517  and  _519
REMARK  218  A    between atoms: _519  and  _520
REMARK  219  A    between atoms: _519  and  _522
REMARK  220  A    between atoms: _522  and  _523
REMARK  221  A    between atoms: _527  and  _528
REMARK  222  A    between atoms: _533  and  _535
REMARK  223  A    between atoms: _535  and  _536
REMARK  224  A    between atoms: _535  and  _538
REMARK  225  A    between atoms: _541  and  _543
REMARK  226  A    between atoms: _543  and  _544
REMARK  227  A    between atoms: _543  and  _546
REMARK  228  A    between atoms: _546  and  _547
REMARK  229  A    between atoms: _552  and  _554
REMARK  230  A    between atoms: _554  and  _555
REMARK  231  A    between atoms: _554  and  _557
REMARK  232  A    between atoms: _557  and  _558
REMARK  233  A    between atoms: _561  and  _563
REMARK  234  A    between atoms: _563  and  _564
REMARK  235  A    between atoms: _563  and  _566
REMARK  236  A    between atoms: _566  and  _567
REMARK  237  A    between atoms: _570  and  _572
REMARK  238  A    between atoms: _572  and  _573
REMARK  239  A    between atoms: _575  and  _577
REMARK  240  A    between atoms: _577  and  _578
REMARK  241  A    between atoms: _577  and  _580
REMARK  242  A    between atoms: _580  and  _581
REMARK  243  A    between atoms: _581  and  _582
REMARK  244  A    between atoms: _582  and  _583
REMARK  245  A    between atoms: _592  and  _594
REMARK  246  A    between atoms: _594  and  _595
REMARK  247  A    between atoms: _594  and  _597
REMARK  248  A    between atoms: _597  and  _598
REMARK                            x       y       z     vdW  Elec       q    Type
REMARK                         _______ _______ _______ _____ _____    ______ ____
ROOT
ATOM      1  CA  LEU A   1      25.301  28.463  10.657  0.00  0.00    +0.133 C 
ENDROOT
BRANCH   1   2
ATOM      2  N   LEU A   1      25.633  28.266   9.253  0.00  0.00    -0.239 NA
ATOM      3  H   LEU A   1      26.503  27.752   9.007  0.00  0.00    +0.142 HD
ENDBRANCH   1   2
BRANCH   1   4
ATOM      4  C   LEU A   1      25.935  29.740  11.183  0.00  0.00    +0.224 C 
ATOM      5  O   LEU A   1      27.077  30.062  10.851  0.00  0.00    -0.287 OA
ENDBRANCH   1   4
BRANCH   1   6
ATOM      6  CB  LEU A   1      25.780  27.268  11.486  0.00  0.00    +0.025 C 
BRANCH   6   7
ATOM      7  CG  LEU A   1      25.116  25.915  11.222  0.00  0.00    +0.002 C 
ATOM      8  CD2 LEU A   1      25.753  24.854  12.108  0.00  0.00    +0.000 C 
ATOM      9  CD1 LEU A   1      23.624  26.004  11.505  0.00  0.00    +0.000 C 
ENDBRANCH   6   7
ENDBRANCH   1   6
TORSDOF 4
REMARK  Name = ../refined-set-2016/1d4i/1d4i_pocket.pdb
REMARK  248 active torsions:
REMARK  status: ('A' for Active; 'I' for Inactive)
REMARK    1  A    between atoms: _1  and  _3
REMARK    2  A    between atoms: _3  and  _4
REMARK    3  A    between atoms: _3  and  _6
REMARK    4  A    between atoms: _6  and  _7
REMARK    5  A    between atoms: _7  and  _8
REMARK    6  A    between atoms: _8  and  _9
REMARK    7  A    between atoms: _18  and  _20
REMARK    8  A    between atoms: _20  and  _21
REMARK    9  A    between atoms: _20  and  _23
REMARK   10  A    between atoms: _23  and  _24
REMARK   11  A    between atoms: _27  and  _29
REMARK   12  A    between atoms: _29  and  _30
REMARK   13  A    between atoms: _29  and  _32
REMARK   14  A    between atoms: _32  and  _33
REMARK   15  A    between atoms: _36  and  _38
REMARK   16  A    between atoms: _38  and  _39
REMARK   17  A    between atoms: _38  and  _41
REMARK   18  A    between atoms: _41  and  _42
REMARK   19  A    between atoms: _45  and  _47
REMARK   20  A    between atoms: _47  and  _48
REMARK   21  A    between atoms: _47  and  _50
REMARK   22  A    between atoms: _50  and  _51
REMARK   23  A    between atoms: _54  and  _56
REMARK   24  A    between atoms: _56  and  _57
REMARK   25  A    between atoms: _56  and  _59
REMARK   26  A    between atoms: _59  and  _60
REMARK   27  A    between atoms: _63  and  _65
REMARK   28  A    between atoms: _65  and  _66
REMARK   29  A    between atoms: _68  and  _70
REMARK   30  A    between atoms: _70  and  _71
REMARK   31  A    between atoms: _74  and  _76
REMARK   32  A    between atoms: _76  and  _77
REMARK   33  A    between atoms: _76  and  _79
REMARK   34  A    between atoms: _79  and  _80
REMARK   35  A    between atoms: _83  and  _85
REMARK   36  A    between atoms: _85  and  _86
REMARK   37  A    between atoms: _85  and  _88
REMARK   38  A    between atoms: _88  and  _89
REMARK   39  A    between atoms: _92  and  _94
REMARK   40  A    between atoms: _94  and  _95
REMARK   41  A    between atoms: _94  and  _97
REMARK   42  A    between atoms: _97  and  _98
REMARK   43  A    between atoms: _101  and  _103
REMARK   44  A    between atoms: _103  and  _104
REMARK   45  A    between atoms: _103  and  _106
REMARK   46  A    between atoms: _109  and  _111
REMARK   47  A    between atoms: _111  and  _112
REMARK   48  A    between atoms: _111  and  _114
REMARK   49  A    between atoms: _114  and  _115
REMARK   50  A    between atoms: _118  and  _120
REMARK   51  A    between atoms: _120  and  _121
REMARK   52  A    between atoms: _120  and  _123
REMARK   53  A    between atoms: _123  and  _124
REMARK   54  A    between atoms: _124  and  _125
REMARK   55  A    between atoms: _125  and  _126
REMARK   56  A    between atoms: _126  and  _127
REMARK   57  A    between atoms: _131  and  _133
REMARK   58  A    between atoms: _133  and  _134
REMARK   59  A    between atoms: _133  and  _136
REMARK   60  A    between atoms: _136  and  _137
REMARK   61  A    between atoms: _137  and  _138
REMARK   62  A    between atoms: _140  and  _142
REMARK   63  A    between atoms: _142  and  _143
REMARK   64  A    between atoms: _142  and  _145
REMARK   65  A    between atoms: _145  and  _146
REMARK   66  A    between atoms: _149  and  _151
REMARK   67  A    between atoms: _151  and  _152
REMARK   68  A    between atoms: _154  and  _156
REMARK   69  A    between atoms: _156  and  _157
REMARK   70  A    between atoms: _159  and  _161
REMARK   71  A    between atoms: _161  and  _162
REMARK   72  A    between atoms: _161  and  _164
REMARK   73  A    between atoms: _164  and  _165
REMARK   74  A    between atoms: _168  and  _170
REMARK   75  A    between atoms: _170  and  _171
REMARK   76  A    between atoms: _173  and  _175
REMARK   77  A    between atoms: _175  and  _176
REMARK   78  A    between atoms: _178  and  _180
REMARK   79  A    between atoms: _180  and  _181
REMARK   80  A    between atoms: _180  and  _183
REMARK   81  A    between atoms: _183  and  _184
REMARK   82  A    between atoms: _190  and  _192
REMARK   83  A    between atoms: _192  and  _193
REMARK   84  A    between atoms: _192  and  _195
REMARK   85  A    between atoms: _195  and  _196
REMARK   86  A    between atoms: _199  and  _201
REMARK   87  A    between atoms: _201  and  _202
REMARK   88  A    between atoms: _201  and  _204
REMARK   89  A    between atoms: _207  and  _209
REMARK   90  A    between atoms: _209  and  _210
REMARK   91  A    between atoms: _209  and  _212
REMARK   92  A    between atoms: _212  and  _213
REMARK   93  A    between atoms: _216  and  _218
REMARK   94  A    between atoms: _218  and  _219
REMARK   95  A    between atoms: _218  and  _221
REMARK   96  A    between atoms: _221  and  _222
REMARK   97  A    between atoms: _226  and  _227
REMARK   98  A    between atoms: _232  and  _234
REMARK   99  A    between atoms: _234  and  _235
REMARK  100  A    between atoms: _234  and  _237
REMARK  101  A    between atoms: _240  and  _242
REMARK  102  A    between atoms: _242  and  _243
REMARK  103  A    between atoms: _242  and  _245
REMARK  104  A    between atoms: _245  and  _246
REMARK  105  A    between atoms: _251  and  _253
REMARK  106  A    between atoms: _253  and  _254
REMARK  107  A    between atoms: _253  and  _256
REMARK  108  A    between atoms: _256  and  _257
REMARK  109  A    between atoms: _260  and  _262
REMARK  110  A    between atoms: _262  and  _263
REMARK  111  A    between atoms: _262  and  _265
REMARK  112  A    between atoms: _265  and  _266
REMARK  113  A    between atoms: _269  and  _271
REMARK  114  A    between atoms: _271  and  _272
REMARK  115  A    between atoms: _274  and  _276
REMARK  116  A    between atoms: _276  and  _277
REMARK  117  A    between atoms: _276  and  _279
REMARK  118  A    between atoms: _279  and  _280
REMARK  119  A    between atoms: _280  and  _281
REMARK  120  A    between atoms: _281  and  _282
REMARK  121  A    between atoms: _291  and  _293
REMARK  122  A    between atoms: _293  and  _294
REMARK  123  A    between atoms: _293  and  _296
REMARK  124  A    between atoms: _296  and  _297
REMARK  125  A    between atoms: _302  and  _304
REMARK  126  A    between atoms: _304  and  _305
REMARK  127  A    between atoms: _304  and  _307
REMARK  128  A    between atoms: _307  and  _308
REMARK  129  A    between atoms: _308  and  _309
REMARK  130  A    between atoms: _309  and  _310
REMARK  131  A    between atoms: _319  and  _321
REMARK  132  A    between atoms: _321  and  _322
REMARK  133  A    between atoms: _321  and  _324
REMARK  134  A    between atoms: _324  and  _325
REMARK  135  A    between atoms: _328  and  _330
REMARK  136  A    between atoms: _330  and  _331
REMARK  137  A    between atoms: _330  and  _333
REMARK  138  A    between atoms: _333  and  _334
REMARK  139  A    between atoms: _337  and  _339
REMARK  140  A    between atoms: _339  and  _340
REMARK  141  A    between atoms: _339  and  _342
REMARK  142  A    between atoms: _342  and  _343
REMARK  143  A    between atoms: _346  and  _348
REMARK  144  A    between atoms: _348  and  _349
REMARK  145  A    between atoms: _348  and  _351
REMARK  146  A    between atoms: _351  and  _352
REMARK  147  A    between atoms: _355  and  _357
REMARK  148  A    between atoms: _357  and  _358
REMARK  149  A    between atoms: _357  and  _360
REMARK  150  A    between atoms: _360  and  _361
REMARK  151  A    between atoms: _364  and  _366
REMARK  152  A    between atoms: _366  and  _367
REMARK  153  A    between atoms: _369  and  _371
REMARK  154  A    between atoms: _371  and  _372
REMARK  155  A    between atoms: _375  and  _377
REMARK  156  A    between atoms: _377  and  _378
REMARK  157  A    between atoms: _377  and  _380
REMARK  158  A    between atoms: _380  and  _381
REMARK  159  A    between atoms: _384  and  _386
REMARK  160  A    between atoms: _386  and  _387
REMARK  161  A    between atoms: _386  and  _389
REMARK  162  A    between atoms: _389  and  _390
REMARK  163  A    between atoms: _393  and  _395
REMARK  164  A    between atoms: _395  and  _396
REMARK  165  A    between atoms: _395  and  _398
REMARK  166  A    between atoms: _398  and  _399
REMARK  167  A    between atoms: _402  and  _404
REMARK  168  A    between atoms: _404  and  _405
REMARK  169  A    between atoms: _404  and  _407
REMARK  170  A    between atoms: _410  and  _412
REMARK  171  A    between atoms: _412  and  _413
REMARK  172  A    between atoms: _412  and  _415
REMARK  173  A    between atoms: _415  and  _416
REMARK  174  A    between atoms: _419  and  _421
REMARK  175  A    between atoms: _421  and  _422
REMARK  176  A    between atoms: _421  and  _424
REMARK  177  A    between atoms: _424  and  _425
REMARK  178  A    between atoms: _425  and  _426
REMARK  179  A    between atoms: _426  and  _427
REMARK  180  A    between atoms: _427  and  _428
REMARK  181  A    between atoms: _432  and  _434
REMARK  182  A    between atoms: _434  and  _435
REMARK  183  A    between atoms: _434  and  _437
REMARK  184  A    between atoms: _437  and  _438
REMARK  185  A    between atoms: _438  and  _439
REMARK  186  A    between atoms: _441  and  _443
REMARK  187  A    between atoms: _443  and  _444
REMARK  188  A    between atoms: _443  and  _446
REMARK  189  A    between atoms: _446  and  _447
REMARK  190  A    between atoms: _450  and  _452
REMARK  191  A    between atoms: _452  and  _453
REMARK  192  A    between atoms: _455  and  _457
REMARK  193  A    between atoms: _457  and  _458
REMARK  194  A    between atoms: _460  and  _462
REMARK  195  A    between atoms: _462  and  _463
REMARK  196  A    between atoms: _462  and  _465
REMARK  197  A    between atoms: _465  and  _466
REMARK  198  A    between atoms: _469  and  _471
REMARK  199  A    between atoms: _471  and  _472
REMARK  200  A    between atoms: _474  and  _476
REMARK  201  A    between atoms: _476  and  _477
REMARK  202  A    between atoms: _479  and  _481
REMARK  203  A    between atoms: _481  and  _482
REMARK  204  A    between atoms: _481  and  _484
REMARK  205  A    between atoms: _484  and  _485
REMARK  206  A    between atoms: _491  and  _493
REMARK  207  A    between atoms: _493  and  _494
REMARK  208  A    between atoms: _493  and  _496
REMARK  209  A    between atoms: _496  and  _497
REMARK  210  A    between atoms: _500  and  _502
REMARK  211  A    between atoms: _502  and  _503
REMARK  212  A    between atoms: _502  and  _505
REMARK  213  A    between atoms: _508  and  _510
REMARK  214  A    between atoms: _510  and  _511
REMARK  215  A    between atoms: _510  and  _513
REMARK  216  A    between atoms: _513  and  _514
REMARK  217  A    between atoms: _517  and  _519
REMARK  218  A    between atoms: _519  and  _520
REMARK  219  A    between atoms: _519  and  _522
REMARK  220  A    between atoms: _522  and  _523
REMARK  221  A    between atoms: _527  and  _528
REMARK  222  A    between atoms: _533  and  _535
REMARK  223  A    between atoms: _535  and  _536
REMARK  224  A    between atoms: _535  and  _538
REMARK  225  A    between atoms: _541  and  _543
REMARK  226  A    between atoms: _543  and  _544
REMARK  227  A    between atoms: _543  and  _546
REMARK  228  A    between atoms: _546  and  _547
REMARK  229  A    between atoms: _552  and  _554
REMARK  230  A    between atoms: _554  and  _555
REMARK  231  A    between atoms: _554  and  _557
REMARK  232  A    between atoms: _557  and  _558
REMARK  233  A    between atoms: _561  and  _563
REMARK  234  A    between atoms: _563  and  _564
REMARK  235  A    between atoms: _563  and  _566
REMARK  236  A    between atoms: _566  and  _567
REMARK  237  A    between atoms: _570  and  _572
REMARK  238  A    between atoms: _572  and  _573
REMARK  239  A    between atoms: _575  and  _577
REMARK  240  A    between atoms: _577  and  _578
REMARK  241  A    between atoms: _577  and  _580
REMARK  242  A    between atoms: _580  and  _581
REMARK  243  A    between atoms: _581  and  _582
REMARK  244  A    between atoms: _582  and  _583
REMARK  245  A    between atoms: _592  and  _594
REMARK  246  A    between atoms: _594  and  _595
REMARK  247  A    between atoms: _594  and  _597
REMARK  248  A    between atoms: _597  and  _598
REMARK                            x       y       z     vdW  Elec       q    Type
REMARK                         _______ _______ _______ _____ _____    ______ ____
ROOT
ATOM      1  C   ALA A   6      11.291  30.331   5.689  0.00  0.00    +0.241 C 
ATOM      2  O   ALA A   6      11.949  31.371   5.692  0.00  0.00    -0.273 OA
ATOM      3  N   ASP A   7       9.962  30.323   5.667  0.00  0.00    -0.297 N 
ATOM      4  H   ASP A   7       9.454  29.415   5.665  0.00  0.00    +0.150 HD
ENDROOT
BRANCH   1   5
ATOM      5  CA  ALA A   6      11.990  28.972   5.715  0.00  0.00    +0.149 C 
ATOM      6  CB  ALA A   6      12.749  28.801   7.030  0.00  0.00    +0.031 C 
BRANCH   5   8
ATOM      7  C   GLY A   5      12.570  28.196   3.480  0.00  0.00    +0.243 C 
ATOM      8  N   ALA A   6      12.911  28.839   4.594  0.00  0.00    -0.297 N 
ATOM      9  H   ALA A   6      13.860  29.258   4.666  0.00  0.00    +0.150 HD
ATOM     10  O   GLY A   5      11.467  27.674   3.323  0.00  0.00    -0.273 OA
BRANCH   7  11
ATOM     11  CA  GLY A   5      13.621  28.126   2.385  0.00  0.00    +0.176 C 
BRANCH  11  13
ATOM     12  C   THR A   4      14.837  30.216   2.345  0.00  0.00    +0.243 C 
ATOM     13  N   GLY A   5      14.794  28.930   2.680  0.00  0.00    -0.295 N 
ATOM     14  H   GLY A   5      15.609  28.495   3.158  0.00  0.00    +0.150 HD
ATOM     15  O   THR A   4      13.910  30.796   1.774  0.00  0.00    -0.273 OA
BRANCH  12  16
ATOM     16  CA  THR A   4      16.112  30.969   2.709  0.00  0.00    +0.176 C 
BRANCH  16  19
ATOM     17  C   ASP A   3      16.550  30.144   4.949  0.00  0.00    +0.241 C 
ATOM     18  O   ASP A   3      15.498  30.624   5.369  0.00  0.00    -0.273 OA
ATOM     19  N   THR A   4      16.932  30.245   3.676  0.00  0.00    -0.295 N 
ATOM     20  H   THR A   4      17.822  29.804   3.369  0.00  0.00    +0.150 HD
BRANCH  17  21
ATOM     21  CA  ASP A   3      17.467  29.374   5.891  0.00  0.00    +0.160 C 
BRANCH  21  23
ATOM     22  C   LEU A   2      19.602  30.213   6.688  0.00  0.00    +0.241 C 
ATOM     23  N   ASP A   3      18.278  30.211   6.760  0.00  0.00    -0.297 N 
ATOM     24  H   ASP A   3      17.808  30.824   7.456  0.00  0.00    +0.150 HD
ATOM     25  O   LEU A   2      20.233  29.595   5.825  0.00  0.00    -0.273 OA
BRANCH  22  26
ATOM     26  CA  LEU A   2      20.319  31.039   7.745  0.00  0.00    +0.149 C 
BRANCH  26  29
ATOM     27  C   LEU A   1      20.168  29.390   9.537  0.00  0.00    +0.238 C 
ATOM     28  O   LEU A   1      19.003  29.698   9.783  0.00  0.00    -0.274 OA
ATOM     29  N   LEU A   2      20.898  30.000   8.602  0.00  0.00    -0.297 N 
ATOM     30  H   LEU A   2      21.896  29.734   8.479  0.00  0.00    +0.150 HD
BRANCH  27  31
ATOM     31  CA  LEU A   1      20.849  28.279  10.332  0.00  0.00    +0.145 C 
BRANCH  31  32
ATOM     32  N   LEU A   1      20.647  28.450  11.758  0.00  0.00    -0.238 NA
ATOM     33  H   LEU A   1      19.754  28.123  12.179  0.00  0.00    +0.142 HD
ENDBRANCH  31  32
BRANCH  31  34
ATOM     34  CB  LEU A   1      20.270  26.924   9.918  0.00  0.00    +0.026 C 
BRANCH  34  35
ATOM     35  CG  LEU A   1      20.447  26.423   8.489  0.00  0.00    +0.002 C 
ATOM     36  CD2 LEU A   1      19.650  25.134   8.309  0.00  0.00    +0.000 C 
ATOM     37  CD1 LEU A   1      21.915  26.170   8.213  0.00  0.00    +0.000 C 
ENDBRANCH  34  35
ENDBRANCH  31  34
ENDBRANCH  27  31
ENDBRANCH  26  29
BRANCH  26  38
ATOM     38  CB  LEU A   2      21.416  31.900   7.113  0.00  0.00    +0.029 C 
BRANCH  38  39
ATOM     39  CG  LEU A   2      22.274  32.663   8.123  0.00  0.00    +0.002 C 
ATOM     40  CD2 LEU A   2      21.389  33.534   9.006  0.00  0.00    +0.000 C 
ATOM     41  CD1 LEU A   2      23.290  33.519   7.381  0.00  0.00    +0.000 C 
ENDBRANCH  38  39
ENDBRANCH  26  38
ENDBRANCH  22  26
ENDBRANCH  21  23
BRANCH  21  42
ATOM     42  CB  ASP A   3      16.636  28.463   6.797  0.00  0.00    +0.143 C 
BRANCH  42  43
ATOM     43  CG  ASP A   3      15.994  27.312   6.057  0.00  0.00    +0.367 C 
ATOM     44  OD2 ASP A   3      15.604  26.342   6.737  0.00  0.00    -0.246 OA
ATOM     45  OD1 ASP A   3      15.872  27.379   4.820  0.00  0.00    -0.246 OA
ENDBRANCH  42  43
ENDBRANCH  21  42
ENDBRANCH  17  21
ENDBRANCH  16  19
BRANCH  16  46
ATOM     46  CB  THR A   4      16.884  31.270   1.408  0.00  0.00    +0.137 C 
ATOM     47  CG2 THR A   4      18.074  32.182   1.697  0.00  0.00    +0.034 C 
BRANCH  46  48
ATOM     48  OG1 THR A   4      17.338  30.043   0.820  0.00  0.00    -0.382 OA
ATOM     49  HG1 THR A   4      16.558  29.469   0.614  0.00  0.00    +0.210 HD
ENDBRANCH  46  48
ENDBRANCH  16  46
ENDBRANCH  12  16
ENDBRANCH  11  13
ENDBRANCH   7  11
ENDBRANCH   5   8
ENDBRANCH   1   5
BRANCH   3  50
ATOM     50  CA  ASP A   7       9.205  31.574   5.645  0.00  0.00    +0.160 C 
BRANCH  50  51
ATOM     51  C   ASP A   7       9.389  32.336   6.943  0.00  0.00    +0.241 C 
ATOM     52  N   ASP A   8       9.379  31.598   8.044  0.00  0.00    -0.297 N 
ATOM     53  H   ASP A   8       9.265  30.567   7.966  0.00  0.00    +0.150 HD
ATOM     54  O   ASP A   7       9.518  33.560   6.948  0.00  0.00    -0.273 OA
BRANCH  52  55
ATOM     55  CA  ASP A   8       9.524  32.198   9.353  0.00  0.00    +0.160 C 
BRANCH  55  56
ATOM     56  C   ASP A   8      10.704  31.648  10.128  0.00  0.00    +0.241 C 
ATOM     57  N   THR A   9      10.882  32.183  11.326  0.00  0.00    -0.295 N 
ATOM     58  H   THR A   9      10.205  32.900  11.655  0.00  0.00    +0.150 HD
ATOM     59  O   ASP A   8      11.428  30.774   9.659  0.00  0.00    -0.273 OA
BRANCH  57  60
ATOM     60  CA  THR A   9      11.976  31.815  12.199  0.00  0.00    +0.176 C 
BRANCH  60  61
ATOM     61  C   THR A   9      11.478  30.930  13.330  0.00  0.00    +0.243 C 
ATOM     62  O   THR A   9      10.514  31.267  14.006  0.00  0.00    -0.273 OA
ATOM     63  N   VAL A  10      12.129  29.792  13.526  0.00  0.00    -0.297 N 
ATOM     64  H   VAL A  10      12.933  29.542  12.916  0.00  0.00    +0.150 HD
BRANCH  63  65
ATOM     65  CA  VAL A  10      11.720  28.895  14.592  0.00  0.00    +0.149 C 
BRANCH  65  66
ATOM     66  C   VAL A  10      12.926  28.433  15.389  0.00  0.00    +0.241 C 
ATOM     67  N   LEU A  11      12.817  28.567  16.705  0.00  0.00    -0.298 N 
ATOM     68  H   LEU A  11      11.940  28.957  17.105  0.00  0.00    +0.150 HD
ATOM     69  O   VAL A  10      13.935  27.985  14.834  0.00  0.00    -0.273 OA
BRANCH  67  70
ATOM     70  CA  LEU A  11      13.895  28.181  17.600  0.00  0.00    +0.137 C 
BRANCH  70  71
ATOM     71  C   LEU A  11      13.457  27.040  18.500  0.00  0.00    +0.227 C 
ATOM     72  O   LEU A  11      12.266  26.850  18.748  0.00  0.00    -0.286 OA
ENDBRANCH  70  71
BRANCH  70  73
ATOM     73  CB  LEU A  11      14.312  29.373  18.457  0.00  0.00    +0.028 C 
BRANCH  73  74
ATOM     74  CG  LEU A  11      14.743  30.629  17.697  0.00  0.00    +0.002 C 
ATOM     75  CD2 LEU A  11      15.102  31.712  18.701  0.00  0.00    +0.000 C 
ATOM     76  CD1 LEU A  11      15.934  30.315  16.794  0.00  0.00    +0.000 C 
ENDBRANCH  73  74
ENDBRANCH  70  73
ENDBRANCH  67  70
ENDBRANCH  65  66
BRANCH  65  77
ATOM     77  CB  VAL A  10      10.921  27.678  14.042  0.00  0.00    +0.027 C 
ATOM     78  CG2 VAL A  10      10.441  26.807  15.202  0.00  0.00    +0.002 C 
ATOM     79  CG1 VAL A  10      11.766  26.871  13.073  0.00  0.00    +0.002 C 
ENDBRANCH  65  77
ENDBRANCH  63  65
ENDBRANCH  60  61
BRANCH  60  80
ATOM     80  CB  THR A   9      12.608  33.090  12.777  0.00  0.00    +0.137 C 
ATOM     81  CG2 THR A   9      13.671  32.759  13.815  0.00  0.00    +0.034 C 
BRANCH  80  82
ATOM     82  OG1 THR A   9      13.185  33.849  11.707  0.00  0.00    -0.382 OA
ATOM     83  HG1 THR A   9      12.479  34.090  11.057  0.00  0.00    +0.210 HD
ENDBRANCH  80  82
ENDBRANCH  60  80
ENDBRANCH  57  60
ENDBRANCH  55  56
BRANCH  55  84
ATOM     84  CB  ASP A   8       8.232  32.025  10.148  0.00  0.00    +0.143 C 
BRANCH  84  85
ATOM     85  CG  ASP A   8       7.135  32.965   9.673  0.00  0.00    +0.367 C 
ATOM     86  OD2 ASP A   8       7.309  34.200   9.800  0.00  0.00    -0.246 OA
ATOM     87  OD1 ASP A   8       6.109  32.473   9.167  0.00  0.00    -0.246 OA
ENDBRANCH  84  85
ENDBRANCH  55  84
ENDBRANCH  52  55
ENDBRANCH  50  51
BRANCH  50  88
ATOM     88  CB  ASP A   7       7.710  31.316   5.467  0.00  0.00    +0.143 C 
BRANCH  88  89
ATOM     89  CG  ASP A   7       7.378  30.707   4.131  0.00  0.00    +0.367 C 
ATOM     90  OD2 ASP A   7       6.358  30.000   4.053  0.00  0.00    -0.246 OA
ATOM     91  OD1 ASP A   7       8.122  30.950   3.162  0.00  0.00    -0.246 OA
ENDBRANCH  88  89
ENDBRANCH  50  88
ENDBRANCH   3  50
TORSDOF 39
REMARK  Name = ../refined-set-2016/1d4i/1d4i_pocket.pdb
REMARK  248 active torsions:
REMARK  status: ('A' for Active; 'I' for Inactive)
REMARK    1  A    between atoms: _1  and  _3
REMARK    2  A    between atoms: _3  and  _4
REMARK    3  A    between atoms: _3  and  _6
REMARK    4  A    between atoms: _6  and  _7
REMARK    5  A    between atoms: _7  and  _8
REMARK    6  A    between atoms: _8  and  _9
REMARK    7  A    between atoms: _18  and  _20
REMARK    8  A    between atoms: _20  and  _21
REMARK    9  A    between atoms: _20  and  _23
REMARK   10  A    between atoms: _23  and  _24
REMARK   11  A    between atoms: _27  and  _29
REMARK   12  A    between atoms: _29  and  _30
REMARK   13  A    between atoms: _29  and  _32
REMARK   14  A    between atoms: _32  and  _33
REMARK   15  A    between atoms: _36  and  _38
REMARK   16  A    between atoms: _38  and  _39
REMARK   17  A    between atoms: _38  and  _41
REMARK   18  A    between atoms: _41  and  _42
REMARK   19  A    between atoms: _45  and  _47
REMARK   20  A    between atoms: _47  and  _48
REMARK   21  A    between atoms: _47  and  _50
REMARK   22  A    between atoms: _50  and  _51
REMARK   23  A    between atoms: _54  and  _56
REMARK   24  A    between atoms: _56  and  _57
REMARK   25  A    between atoms: _56  and  _59
REMARK   26  A    between atoms: _59  and  _60
REMARK   27  A    between atoms: _63  and  _65
REMARK   28  A    between atoms: _65  and  _66
REMARK   29  A    between atoms: _68  and  _70
REMARK   30  A    between atoms: _70  and  _71
REMARK   31  A    between atoms: _74  and  _76
REMARK   32  A    between atoms: _76  and  _77
REMARK   33  A    between atoms: _76  and  _79
REMARK   34  A    between atoms: _79  and  _80
REMARK   35  A    between atoms: _83  and  _85
REMARK   36  A    between atoms: _85  and  _86
REMARK   37  A    between atoms: _85  and  _88
REMARK   38  A    between atoms: _88  and  _89
REMARK   39  A    between atoms: _92  and  _94
REMARK   40  A    between atoms: _94  and  _95
REMARK   41  A    between atoms: _94  and  _97
REMARK   42  A    between atoms: _97  and  _98
REMARK   43  A    between atoms: _101  and  _103
REMARK   44  A    between atoms: _103  and  _104
REMARK   45  A    between atoms: _103  and  _106
REMARK   46  A    between atoms: _109  and  _111
REMARK   47  A    between atoms: _111  and  _112
REMARK   48  A    between atoms: _111  and  _114
REMARK   49  A    between atoms: _114  and  _115
REMARK   50  A    between atoms: _118  and  _120
REMARK   51  A    between atoms: _120  and  _121
REMARK   52  A    between atoms: _120  and  _123
REMARK   53  A    between atoms: _123  and  _124
REMARK   54  A    between atoms: _124  and  _125
REMARK   55  A    between atoms: _125  and  _126
REMARK   56  A    between atoms: _126  and  _127
REMARK   57  A    between atoms: _131  and  _133
REMARK   58  A    between atoms: _133  and  _134
REMARK   59  A    between atoms: _133  and  _136
REMARK   60  A    between atoms: _136  and  _137
REMARK   61  A    between atoms: _137  and  _138
REMARK   62  A    between atoms: _140  and  _142
REMARK   63  A    between atoms: _142  and  _143
REMARK   64  A    between atoms: _142  and  _145
REMARK   65  A    between atoms: _145  and  _146
REMARK   66  A    between atoms: _149  and  _151
REMARK   67  A    between atoms: _151  and  _152
REMARK   68  A    between atoms: _154  and  _156
REMARK   69  A    between atoms: _156  and  _157
REMARK   70  A    between atoms: _159  and  _161
REMARK   71  A    between atoms: _161  and  _162
REMARK   72  A    between atoms: _161  and  _164
REMARK   73  A    between atoms: _164  and  _165
REMARK   74  A    between atoms: _168  and  _170
REMARK   75  A    between atoms: _170  and  _171
REMARK   76  A    between atoms: _173  and  _175
REMARK   77  A    between atoms: _175  and  _176
REMARK   78  A    between atoms: _178  and  _180
REMARK   79  A    between atoms: _180  and  _181
REMARK   80  A    between atoms: _180  and  _183
REMARK   81  A    between atoms: _183  and  _184
REMARK   82  A    between atoms: _190  and  _192
REMARK   83  A    between atoms: _192  and  _193
REMARK   84  A    between atoms: _192  and  _195
REMARK   85  A    between atoms: _195  and  _196
REMARK   86  A    between atoms: _199  and  _201
REMARK   87  A    between atoms: _201  and  _202
REMARK   88  A    between atoms: _201  and  _204
REMARK   89  A    between atoms: _207  and  _209
REMARK   90  A    between atoms: _209  and  _210
REMARK   91  A    between atoms: _209  and  _212
REMARK   92  A    between atoms: _212  and  _213
REMARK   93  A    between atoms: _216  and  _218
REMARK   94  A    between atoms: _218  and  _219
REMARK   95  A    between atoms: _218  and  _221
REMARK   96  A    between atoms: _221  and  _222
REMARK   97  A    between atoms: _226  and  _227
REMARK   98  A    between atoms: _232  and  _234
REMARK   99  A    between atoms: _234  and  _235
REMARK  100  A    between atoms: _234  and  _237
REMARK  101  A    between atoms: _240  and  _242
REMARK  102  A    between atoms: _242  and  _243
REMARK  103  A    between atoms: _242  and  _245
REMARK  104  A    between atoms: _245  and  _246
REMARK  105  A    between atoms: _251  and  _253
REMARK  106  A    between atoms: _253  and  _254
REMARK  107  A    between atoms: _253  and  _256
REMARK  108  A    between atoms: _256  and  _257
REMARK  109  A    between atoms: _260  and  _262
REMARK  110  A    between atoms: _262  and  _263
REMARK  111  A    between atoms: _262  and  _265
REMARK  112  A    between atoms: _265  and  _266
REMARK  113  A    between atoms: _269  and  _271
REMARK  114  A    between atoms: _271  and  _272
REMARK  115  A    between atoms: _274  and  _276
REMARK  116  A    between atoms: _276  and  _277
REMARK  117  A    between atoms: _276  and  _279
REMARK  118  A    between atoms: _279  and  _280
REMARK  119  A    between atoms: _280  and  _281
REMARK  120  A    between atoms: _281  and  _282
REMARK  121  A    between atoms: _291  and  _293
REMARK  122  A    between atoms: _293  and  _294
REMARK  123  A    between atoms: _293  and  _296
REMARK  124  A    between atoms: _296  and  _297
REMARK  125  A    between atoms: _302  and  _304
REMARK  126  A    between atoms: _304  and  _305
REMARK  127  A    between atoms: _304  and  _307
REMARK  128  A    between atoms: _307  and  _308
REMARK  129  A    between atoms: _308  and  _309
REMARK  130  A    between atoms: _309  and  _310
REMARK  131  A    between atoms: _319  and  _321
REMARK  132  A    between atoms: _321  and  _322
REMARK  133  A    between atoms: _321  and  _324
REMARK  134  A    between atoms: _324  and  _325
REMARK  135  A    between atoms: _328  and  _330
REMARK  136  A    between atoms: _330  and  _331
REMARK  137  A    between atoms: _330  and  _333
REMARK  138  A    between atoms: _333  and  _334
REMARK  139  A    between atoms: _337  and  _339
REMARK  140  A    between atoms: _339  and  _340
REMARK  141  A    between atoms: _339  and  _342
REMARK  142  A    between atoms: _342  and  _343
REMARK  143  A    between atoms: _346  and  _348
REMARK  144  A    between atoms: _348  and  _349
REMARK  145  A    between atoms: _348  and  _351
REMARK  146  A    between atoms: _351  and  _352
REMARK  147  A    between atoms: _355  and  _357
REMARK  148  A    between atoms: _357  and  _358
REMARK  149  A    between atoms: _357  and  _360
REMARK  150  A    between atoms: _360  and  _361
REMARK  151  A    between atoms: _364  and  _366
REMARK  152  A    between atoms: _366  and  _367
REMARK  153  A    between atoms: _369  and  _371
REMARK  154  A    between atoms: _371  and  _372
REMARK  155  A    between atoms: _375  and  _377
REMARK  156  A    between atoms: _377  and  _378
REMARK  157  A    between atoms: _377  and  _380
REMARK  158  A    between atoms: _380  and  _381
REMARK  159  A    between atoms: _384  and  _386
REMARK  160  A    between atoms: _386  and  _387
REMARK  161  A    between atoms: _386  and  _389
REMARK  162  A    between atoms: _389  and  _390
REMARK  163  A    between atoms: _393  and  _395
REMARK  164  A    between atoms: _395  and  _396
REMARK  165  A    between atoms: _395  and  _398
REMARK  166  A    between atoms: _398  and  _399
REMARK  167  A    between atoms: _402  and  _404
REMARK  168  A    between atoms: _404  and  _405
REMARK  169  A    between atoms: _404  and  _407
REMARK  170  A    between atoms: _410  and  _412
REMARK  171  A    between atoms: _412  and  _413
REMARK  172  A    between atoms: _412  and  _415
REMARK  173  A    between atoms: _415  and  _416
REMARK  174  A    between atoms: _419  and  _421
REMARK  175  A    between atoms: _421  and  _422
REMARK  176  A    between atoms: _421  and  _424
REMARK  177  A    between atoms: _424  and  _425
REMARK  178  A    between atoms: _425  and  _426
REMARK  179  A    between atoms: _426  and  _427
REMARK  180  A    between atoms: _427  and  _428
REMARK  181  A    between atoms: _432  and  _434
REMARK  182  A    between atoms: _434  and  _435
REMARK  183  A    between atoms: _434  and  _437
REMARK  184  A    between atoms: _437  and  _438
REMARK  185  A    between atoms: _438  and  _439
REMARK  186  A    between atoms: _441  and  _443
REMARK  187  A    between atoms: _443  and  _444
REMARK  188  A    between atoms: _443  and  _446
REMARK  189  A    between atoms: _446  and  _447
REMARK  190  A    between atoms: _450  and  _452
REMARK  191  A    between atoms: _452  and  _453
REMARK  192  A    between atoms: _455  and  _457
REMARK  193  A    between atoms: _457  and  _458
REMARK  194  A    between atoms: _460  and  _462
REMARK  195  A    between atoms: _462  and  _463
REMARK  196  A    between atoms: _462  and  _465
REMARK  197  A    between atoms: _465  and  _466
REMARK  198  A    between atoms: _469  and  _471
REMARK  199  A    between atoms: _471  and  _472
REMARK  200  A    between atoms: _474  and  _476
REMARK  201  A    between atoms: _476  and  _477
REMARK  202  A    between atoms: _479  and  _481
REMARK  203  A    between atoms: _481  and  _482
REMARK  204  A    between atoms: _481  and  _484
REMARK  205  A    between atoms: _484  and  _485
REMARK  206  A    between atoms: _491  and  _493
REMARK  207  A    between atoms: _493  and  _494
REMARK  208  A    between atoms: _493  and  _496
REMARK  209  A    between atoms: _496  and  _497
REMARK  210  A    between atoms: _500  and  _502
REMARK  211  A    between atoms: _502  and  _503
REMARK  212  A    between atoms: _502  and  _505
REMARK  213  A    between atoms: _508  and  _510
REMARK  214  A    between atoms: _510  and  _511
REMARK  215  A    between atoms: _510  and  _513
REMARK  216  A    between atoms: _513  and  _514
REMARK  217  A    between atoms: _517  and  _519
REMARK  218  A    between atoms: _519  and  _520
REMARK  219  A    between atoms: _519  and  _522
REMARK  220  A    between atoms: _522  and  _523
REMARK  221  A    between atoms: _527  and  _528
REMARK  222  A    between atoms: _533  and  _535
REMARK  223  A    between atoms: _535  and  _536
REMARK  224  A    between atoms: _535  and  _538
REMARK  225  A    between atoms: _541  and  _543
REMARK  226  A    between atoms: _543  and  _544
REMARK  227  A    between atoms: _543  and  _546
REMARK  228  A    between atoms: _546  and  _547
REMARK  229  A    between atoms: _552  and  _554
REMARK  230  A    between atoms: _554  and  _555
REMARK  231  A    between atoms: _554  and  _557
REMARK  232  A    between atoms: _557  and  _558
REMARK  233  A    between atoms: _561  and  _563
REMARK  234  A    between atoms: _563  and  _564
REMARK  235  A    between atoms: _563  and  _566
REMARK  236  A    between atoms: _566  and  _567
REMARK  237  A    between atoms: _570  and  _572
REMARK  238  A    between atoms: _572  and  _573
REMARK  239  A    between atoms: _575  and  _577
REMARK  240  A    between atoms: _577  and  _578
REMARK  241  A    between atoms: _577  and  _580
REMARK  242  A    between atoms: _580  and  _581
REMARK  243  A    between atoms: _581  and  _582
REMARK  244  A    between atoms: _582  and  _583
REMARK  245  A    between atoms: _592  and  _594
REMARK  246  A    between atoms: _594  and  _595
REMARK  247  A    between atoms: _594  and  _597
REMARK  248  A    between atoms: _597  and  _598
REMARK                            x       y       z     vdW  Elec       q    Type
REMARK                         _______ _______ _______ _____ _____    ______ ____
ROOT
ATOM      1  C   GLY A   5       8.158  20.085   5.714  0.00  0.00    +0.243 C 
ATOM      2  N   ILE A   6       9.385  19.624   5.515  0.00  0.00    -0.297 N 
ATOM      3  H   ILE A   6      10.201  20.242   5.699  0.00  0.00    +0.150 HD
ATOM      4  O   GLY A   5       7.151  19.423   5.479  0.00  0.00    -0.273 OA
ENDROOT
BRANCH   2   5
ATOM      5  CA  ILE A   6       9.606  18.269   5.044  0.00  0.00    +0.149 C 
BRANCH   5   6
ATOM      6  C   ILE A   6       9.273  17.379   6.237  0.00  0.00    +0.241 C 
ATOM      7  O   ILE A   6       9.751  17.625   7.339  0.00  0.00    -0.273 OA
ATOM      8  N   GLY A   7       8.450  16.361   6.029  0.00  0.00    -0.295 N 
ATOM      9  H   GLY A   7       8.044  16.199   5.085  0.00  0.00    +0.150 HD
BRANCH   8  10
ATOM     10  CA  GLY A   7       8.121  15.474   7.129  0.00  0.00    +0.176 C 
BRANCH  10  11
ATOM     11  C   GLY A   7       6.770  15.736   7.765  0.00  0.00    +0.243 C 
ATOM     12  O   GLY A   7       6.230  14.872   8.453  0.00  0.00    -0.273 OA
ATOM     13  N   GLY A   8       6.220  16.924   7.552  0.00  0.00    -0.295 N 
ATOM     14  H   GLY A   8       6.717  17.634   6.977  0.00  0.00    +0.150 HD
BRANCH  13  15
ATOM     15  CA  GLY A   8       4.923  17.228   8.125  0.00  0.00    +0.176 C 
BRANCH  15  16
ATOM     16  C   GLY A   8       4.904  18.502   8.941  0.00  0.00    +0.243 C 
ATOM     17  N   PHE A   9       3.901  18.624   9.803  0.00  0.00    -0.297 N 
ATOM     18  H   PHE A   9       3.210  17.852   9.891  0.00  0.00    +0.150 HD
ATOM     19  O   GLY A   8       5.787  19.350   8.810  0.00  0.00    -0.273 OA
BRANCH  17  20
ATOM     20  CA  PHE A   9       3.746  19.813  10.627  0.00  0.00    +0.153 C 
BRANCH  20  21
ATOM     21  C   PHE A   9       4.109  19.607  12.085  0.00  0.00    +0.241 C 
ATOM     22  N   ILE A  10       4.490  20.701  12.736  0.00  0.00    -0.298 N 
ATOM     23  H   ILE A  10       4.574  21.596  12.213  0.00  0.00    +0.150 HD
ATOM     24  O   PHE A   9       4.049  18.489  12.607  0.00  0.00    -0.273 OA
BRANCH  22  25
ATOM     25  CA  ILE A  10       4.793  20.683  14.161  0.00  0.00    +0.137 C 
BRANCH  25  26
ATOM     26  C   ILE A  10       4.069  21.878  14.766  0.00  0.00    +0.227 C 
ATOM     27  O   ILE A  10       3.827  22.879  14.086  0.00  0.00    -0.286 OA
ENDBRANCH  25  26
BRANCH  25  28
ATOM     28  CB  ILE A  10       6.311  20.797  14.470  0.00  0.00    +0.026 C 
ATOM     29  CG2 ILE A  10       7.021  19.518  14.050  0.00  0.00    +0.002 C 
BRANCH  28  30
ATOM     30  CG1 ILE A  10       6.908  22.026  13.780  0.00  0.00    +0.002 C 
ATOM     31  CD1 ILE A  10       8.302  22.381  14.275  0.00  0.00    +0.000 C 
ENDBRANCH  28  30
ENDBRANCH  25  28
ENDBRANCH  22  25
ENDBRANCH  20  21
BRANCH  20  32
ATOM     32  CB  PHE A   9       2.297  20.312  10.584  0.00  0.00    +0.055 C 
BRANCH  32  33
ATOM     33  CG  PHE A   9       1.859  20.831   9.249  0.00  0.00    -0.020 A 
ATOM     34  CD2 PHE A   9       1.649  22.193   9.059  0.00  0.00    -0.004 A 
ATOM     35  CE2 PHE A   9       1.211  22.684   7.835  0.00  0.00    -0.000 A 
ATOM     36  CZ  PHE A   9       0.975  21.805   6.781  0.00  0.00    -0.000 A 
ATOM     37  CE1 PHE A   9       1.183  20.443   6.959  0.00  0.00    -0.000 A 
ATOM     38  CD1 PHE A   9       1.624  19.961   8.189  0.00  0.00    -0.004 A 
ENDBRANCH  32  33
ENDBRANCH  20  32
ENDBRANCH  17  20
ENDBRANCH  15  16
ENDBRANCH  13  15
ENDBRANCH  10  11
ENDBRANCH   8  10
ENDBRANCH   5   6
BRANCH   5  39
ATOM     39  CB  ILE A   6      11.087  18.041   4.673  0.00  0.00    +0.027 C 
ATOM     40  CG2 ILE A   6      11.323  16.572   4.346  0.00  0.00    +0.002 C 
BRANCH  39  41
ATOM     41  CG1 ILE A   6      11.481  18.941   3.499  0.00  0.00    +0.002 C 
ATOM     42  CD1 ILE A   6      10.789  18.599   2.209  0.00  0.00    +0.000 C 
ENDBRANCH  39  41
ENDBRANCH   5  39
ENDBRANCH   2   5
BRANCH   1  43
ATOM     43  CA  GLY A   5       8.038  21.495   6.246  0.00  0.00    +0.176 C 
BRANCH  43  45
ATOM     44  C   GLY A   4       6.046  22.619   7.032  0.00  0.00    +0.243 C 
ATOM     45  N   GLY A   5       6.817  21.541   7.025  0.00  0.00    -0.295 N 
ATOM     46  H   GLY A   5       6.540  20.712   7.589  0.00  0.00    +0.150 HD
ATOM     47  O   GLY A   4       6.317  23.651   6.416  0.00  0.00    -0.273 OA
BRANCH  44  48
ATOM     48  CA  GLY A   4       4.794  22.506   7.872  0.00  0.00    +0.176 C 
BRANCH  48  51
ATOM     49  C   ILE A   3       4.449  23.728   9.918  0.00  0.00    +0.241 C 
ATOM     50  O   ILE A   3       4.718  22.743  10.600  0.00  0.00    -0.273 OA
ATOM     51  N   GLY A   4       4.461  23.717   8.591  0.00  0.00    -0.295 N 
ATOM     52  H   GLY A   4       4.230  24.584   8.065  0.00  0.00    +0.150 HD
BRANCH  49  53
ATOM     53  CA  ILE A   3       4.059  25.045  10.567  0.00  0.00    +0.149 C 
BRANCH  53  55
ATOM     54  C   MET A   2       2.001  25.274  11.809  0.00  0.00    +0.241 C 
ATOM     55  N   ILE A   3       3.226  24.768  11.730  0.00  0.00    -0.297 N 
ATOM     56  H   ILE A   3       3.592  24.172  12.500  0.00  0.00    +0.150 HD
ATOM     57  O   MET A   2       1.541  26.024  10.952  0.00  0.00    -0.273 OA
BRANCH  54  58
ATOM     58  CA  MET A   2       1.173  24.918  13.037  0.00  0.00    +0.149 C 
BRANCH  58  61
ATOM     59  C   LYS A   1       1.053  26.570  14.808  0.00  0.00    +0.238 C 
ATOM     60  O   LYS A   1       1.789  25.915  15.543  0.00  0.00    -0.274 OA
ATOM     61  N   MET A   2       0.693  26.170  13.595  0.00  0.00    -0.297 N 
ATOM     62  H   MET A   2       0.053  26.766  13.032  0.00  0.00    +0.150 HD
BRANCH  59  63
ATOM     63  CA  LYS A   1       0.497  27.902  15.263  0.00  0.00    +0.145 C 
BRANCH  63  64
ATOM     64  N   LYS A   1       0.451  27.906  16.713  0.00  0.00    -0.238 NA
ATOM     65  H   LYS A   1       1.123  27.317  17.246  0.00  0.00    +0.142 HD
ENDBRANCH  63  64
BRANCH  63  66
ATOM     66  CB  LYS A   1       1.396  29.033  14.754  0.00  0.00    +0.026 C 
BRANCH  66  67
ATOM     67  CG  LYS A   1       1.449  29.146  13.237  0.00  0.00    -0.000 C 
BRANCH  67  68
ATOM     68  CD  LYS A   1       2.362  30.280  12.787  0.00  0.00    -0.024 C 
BRANCH  68  69
ATOM     69  CE  LYS A   1       2.226  30.516  11.288  0.00  0.00    -0.086 C 
BRANCH  69  70
ATOM     70  NZ  LYS A   1       3.087  31.621  10.801  0.00  0.00    +0.380 N 
ATOM     71  HZ1 LYS A   1       2.826  32.502  11.287  0.00  0.00    -0.089 HD
ATOM     72  HZ2 LYS A   1       4.083  31.396  10.999  0.00  0.00    -0.089 HD
ATOM     73  HZ3 LYS A   1       2.954  31.737   9.776  0.00  0.00    -0.089 HD
ENDBRANCH  69  70
ENDBRANCH  68  69
ENDBRANCH  67  68
ENDBRANCH  66  67
ENDBRANCH  63  66
ENDBRANCH  59  63
ENDBRANCH  58  61
BRANCH  58  74
ATOM     74  CB  MET A   2      -0.010  24.045  12.615  0.00  0.00    +0.041 C 
BRANCH  74  75
ATOM     75  CG  MET A   2       0.268  22.565  12.659  0.00  0.00    +0.060 C 
BRANCH  75  76
ATOM     76  SD  MET A   2       0.311  21.967  14.359  0.00  0.00    -0.139 S 
ATOM     77  CE  MET A   2      -1.445  21.755  14.662  0.00  0.00    +0.069 C 
ENDBRANCH  75  76
ENDBRANCH  74  75
ENDBRANCH  58  74
ENDBRANCH  54  58
ENDBRANCH  53  55
BRANCH  53  78
ATOM     78  CB  ILE A   3       5.334  25.838  10.931  0.00  0.00    +0.027 C 
ATOM     79  CG2 ILE A   3       4.954  27.235  11.410  0.00  0.00    +0.002 C 
BRANCH  78  80
ATOM     80  CG1 ILE A   3       6.144  25.092  11.990  0.00  0.00    +0.002 C 
ATOM     81  CD1 ILE A   3       7.431  25.802  12.384  0.00  0.00    +0.000 C 
ENDBRANCH  78  80
ENDBRANCH  53  78
ENDBRANCH  49  53
ENDBRANCH  48  51
ENDBRANCH  44  48
ENDBRANCH  43  45
ENDBRANCH   1  43
TORSDOF 36
REMARK  Name = ../refined-set-2016/1d4i/1d4i_pocket.pdb
REMARK  248 active torsions:
REMARK  status: ('A' for Active; 'I' for Inactive)
REMARK    1  A    between atoms: _1  and  _3
REMARK    2  A    between atoms: _3  and  _4
REMARK    3  A    between atoms: _3  and  _6
REMARK    4  A    between atoms: _6  and  _7
REMARK    5  A    between atoms: _7  and  _8
REMARK    6  A    between atoms: _8  and  _9
REMARK    7  A    between atoms: _18  and  _20
REMARK    8  A    between atoms: _20  and  _21
REMARK    9  A    between atoms: _20  and  _23
REMARK   10  A    between atoms: _23  and  _24
REMARK   11  A    between atoms: _27  and  _29
REMARK   12  A    between atoms: _29  and  _30
REMARK   13  A    between atoms: _29  and  _32
REMARK   14  A    between atoms: _32  and  _33
REMARK   15  A    between atoms: _36  and  _38
REMARK   16  A    between atoms: _38  and  _39
REMARK   17  A    between atoms: _38  and  _41
REMARK   18  A    between atoms: _41  and  _42
REMARK   19  A    between atoms: _45  and  _47
REMARK   20  A    between atoms: _47  and  _48
REMARK   21  A    between atoms: _47  and  _50
REMARK   22  A    between atoms: _50  and  _51
REMARK   23  A    between atoms: _54  and  _56
REMARK   24  A    between atoms: _56  and  _57
REMARK   25  A    between atoms: _56  and  _59
REMARK   26  A    between atoms: _59  and  _60
REMARK   27  A    between atoms: _63  and  _65
REMARK   28  A    between atoms: _65  and  _66
REMARK   29  A    between atoms: _68  and  _70
REMARK   30  A    between atoms: _70  and  _71
REMARK   31  A    between atoms: _74  and  _76
REMARK   32  A    between atoms: _76  and  _77
REMARK   33  A    between atoms: _76  and  _79
REMARK   34  A    between atoms: _79  and  _80
REMARK   35  A    between atoms: _83  and  _85
REMARK   36  A    between atoms: _85  and  _86
REMARK   37  A    between atoms: _85  and  _88
REMARK   38  A    between atoms: _88  and  _89
REMARK   39  A    between atoms: _92  and  _94
REMARK   40  A    between atoms: _94  and  _95
REMARK   41  A    between atoms: _94  and  _97
REMARK   42  A    between atoms: _97  and  _98
REMARK   43  A    between atoms: _101  and  _103
REMARK   44  A    between atoms: _103  and  _104
REMARK   45  A    between atoms: _103  and  _106
REMARK   46  A    between atoms: _109  and  _111
REMARK   47  A    between atoms: _111  and  _112
REMARK   48  A    between atoms: _111  and  _114
REMARK   49  A    between atoms: _114  and  _115
REMARK   50  A    between atoms: _118  and  _120
REMARK   51  A    between atoms: _120  and  _121
REMARK   52  A    between atoms: _120  and  _123
REMARK   53  A    between atoms: _123  and  _124
REMARK   54  A    between atoms: _124  and  _125
REMARK   55  A    between atoms: _125  and  _126
REMARK   56  A    between atoms: _126  and  _127
REMARK   57  A    between atoms: _131  and  _133
REMARK   58  A    between atoms: _133  and  _134
REMARK   59  A    between atoms: _133  and  _136
REMARK   60  A    between atoms: _136  and  _137
REMARK   61  A    between atoms: _137  and  _138
REMARK   62  A    between atoms: _140  and  _142
REMARK   63  A    between atoms: _142  and  _143
REMARK   64  A    between atoms: _142  and  _145
REMARK   65  A    between atoms: _145  and  _146
REMARK   66  A    between atoms: _149  and  _151
REMARK   67  A    between atoms: _151  and  _152
REMARK   68  A    between atoms: _154  and  _156
REMARK   69  A    between atoms: _156  and  _157
REMARK   70  A    between atoms: _159  and  _161
REMARK   71  A    between atoms: _161  and  _162
REMARK   72  A    between atoms: _161  and  _164
REMARK   73  A    between atoms: _164  and  _165
REMARK   74  A    between atoms: _168  and  _170
REMARK   75  A    between atoms: _170  and  _171
REMARK   76  A    between atoms: _173  and  _175
REMARK   77  A    between atoms: _175  and  _176
REMARK   78  A    between atoms: _178  and  _180
REMARK   79  A    between atoms: _180  and  _181
REMARK   80  A    between atoms: _180  and  _183
REMARK   81  A    between atoms: _183  and  _184
REMARK   82  A    between atoms: _190  and  _192
REMARK   83  A    between atoms: _192  and  _193
REMARK   84  A    between atoms: _192  and  _195
REMARK   85  A    between atoms: _195  and  _196
REMARK   86  A    between atoms: _199  and  _201
REMARK   87  A    between atoms: _201  and  _202
REMARK   88  A    between atoms: _201  and  _204
REMARK   89  A    between atoms: _207  and  _209
REMARK   90  A    between atoms: _209  and  _210
REMARK   91  A    between atoms: _209  and  _212
REMARK   92  A    between atoms: _212  and  _213
REMARK   93  A    between atoms: _216  and  _218
REMARK   94  A    between atoms: _218  and  _219
REMARK   95  A    between atoms: _218  and  _221
REMARK   96  A    between atoms: _221  and  _222
REMARK   97  A    between atoms: _226  and  _227
REMARK   98  A    between atoms: _232  and  _234
REMARK   99  A    between atoms: _234  and  _235
REMARK  100  A    between atoms: _234  and  _237
REMARK  101  A    between atoms: _240  and  _242
REMARK  102  A    between atoms: _242  and  _243
REMARK  103  A    between atoms: _242  and  _245
REMARK  104  A    between atoms: _245  and  _246
REMARK  105  A    between atoms: _251  and  _253
REMARK  106  A    between atoms: _253  and  _254
REMARK  107  A    between atoms: _253  and  _256
REMARK  108  A    between atoms: _256  and  _257
REMARK  109  A    between atoms: _260  and  _262
REMARK  110  A    between atoms: _262  and  _263
REMARK  111  A    between atoms: _262  and  _265
REMARK  112  A    between atoms: _265  and  _266
REMARK  113  A    between atoms: _269  and  _271
REMARK  114  A    between atoms: _271  and  _272
REMARK  115  A    between atoms: _274  and  _276
REMARK  116  A    between atoms: _276  and  _277
REMARK  117  A    between atoms: _276  and  _279
REMARK  118  A    between atoms: _279  and  _280
REMARK  119  A    between atoms: _280  and  _281
REMARK  120  A    between atoms: _281  and  _282
REMARK  121  A    between atoms: _291  and  _293
REMARK  122  A    between atoms: _293  and  _294
REMARK  123  A    between atoms: _293  and  _296
REMARK  124  A    between atoms: _296  and  _297
REMARK  125  A    between atoms: _302  and  _304
REMARK  126  A    between atoms: _304  and  _305
REMARK  127  A    between atoms: _304  and  _307
REMARK  128  A    between atoms: _307  and  _308
REMARK  129  A    between atoms: _308  and  _309
REMARK  130  A    between atoms: _309  and  _310
REMARK  131  A    between atoms: _319  and  _321
REMARK  132  A    between atoms: _321  and  _322
REMARK  133  A    between atoms: _321  and  _324
REMARK  134  A    between atoms: _324  and  _325
REMARK  135  A    between atoms: _328  and  _330
REMARK  136  A    between atoms: _330  and  _331
REMARK  137  A    between atoms: _330  and  _333
REMARK  138  A    between atoms: _333  and  _334
REMARK  139  A    between atoms: _337  and  _339
REMARK  140  A    between atoms: _339  and  _340
REMARK  141  A    between atoms: _339  and  _342
REMARK  142  A    between atoms: _342  and  _343
REMARK  143  A    between atoms: _346  and  _348
REMARK  144  A    between atoms: _348  and  _349
REMARK  145  A    between atoms: _348  and  _351
REMARK  146  A    between atoms: _351  and  _352
REMARK  147  A    between atoms: _355  and  _357
REMARK  148  A    between atoms: _357  and  _358
REMARK  149  A    between atoms: _357  and  _360
REMARK  150  A    between atoms: _360  and  _361
REMARK  151  A    between atoms: _364  and  _366
REMARK  152  A    between atoms: _366  and  _367
REMARK  153  A    between atoms: _369  and  _371
REMARK  154  A    between atoms: _371  and  _372
REMARK  155  A    between atoms: _375  and  _377
REMARK  156  A    between atoms: _377  and  _378
REMARK  157  A    between atoms: _377  and  _380
REMARK  158  A    between atoms: _380  and  _381
REMARK  159  A    between atoms: _384  and  _386
REMARK  160  A    between atoms: _386  and  _387
REMARK  161  A    between atoms: _386  and  _389
REMARK  162  A    between atoms: _389  and  _390
REMARK  163  A    between atoms: _393  and  _395
REMARK  164  A    between atoms: _395  and  _396
REMARK  165  A    between atoms: _395  and  _398
REMARK  166  A    between atoms: _398  and  _399
REMARK  167  A    between atoms: _402  and  _404
REMARK  168  A    between atoms: _404  and  _405
REMARK  169  A    between atoms: _404  and  _407
REMARK  170  A    between atoms: _410  and  _412
REMARK  171  A    between atoms: _412  and  _413
REMARK  172  A    between atoms: _412  and  _415
REMARK  173  A    between atoms: _415  and  _416
REMARK  174  A    between atoms: _419  and  _421
REMARK  175  A    between atoms: _421  and  _422
REMARK  176  A    between atoms: _421  and  _424
REMARK  177  A    between atoms: _424  and  _425
REMARK  178  A    between atoms: _425  and  _426
REMARK  179  A    between atoms: _426  and  _427
REMARK  180  A    between atoms: _427  and  _428
REMARK  181  A    between atoms: _432  and  _434
REMARK  182  A    between atoms: _434  and  _435
REMARK  183  A    between atoms: _434  and  _437
REMARK  184  A    between atoms: _437  and  _438
REMARK  185  A    between atoms: _438  and  _439
REMARK  186  A    between atoms: _441  and  _443
REMARK  187  A    between atoms: _443  and  _444
REMARK  188  A    between atoms: _443  and  _446
REMARK  189  A    between atoms: _446  and  _447
REMARK  190  A    between atoms: _450  and  _452
REMARK  191  A    between atoms: _452  and  _453
REMARK  192  A    between atoms: _455  and  _457
REMARK  193  A    between atoms: _457  and  _458
REMARK  194  A    between atoms: _460  and  _462
REMARK  195  A    between atoms: _462  and  _463
REMARK  196  A    between atoms: _462  and  _465
REMARK  197  A    between atoms: _465  and  _466
REMARK  198  A    between atoms: _469  and  _471
REMARK  199  A    between atoms: _471  and  _472
REMARK  200  A    between atoms: _474  and  _476
REMARK  201  A    between atoms: _476  and  _477
REMARK  202  A    between atoms: _479  and  _481
REMARK  203  A    between atoms: _481  and  _482
REMARK  204  A    between atoms: _481  and  _484
REMARK  205  A    between atoms: _484  and  _485
REMARK  206  A    between atoms: _491  and  _493
REMARK  207  A    between atoms: _493  and  _494
REMARK  208  A    between atoms: _493  and  _496
REMARK  209  A    between atoms: _496  and  _497
REMARK  210  A    between atoms: _500  and  _502
REMARK  211  A    between atoms: _502  and  _503
REMARK  212  A    between atoms: _502  and  _505
REMARK  213  A    between atoms: _508  and  _510
REMARK  214  A    between atoms: _510  and  _511
REMARK  215  A    between atoms: _510  and  _513
REMARK  216  A    between atoms: _513  and  _514
REMARK  217  A    between atoms: _517  and  _519
REMARK  218  A    between atoms: _519  and  _520
REMARK  219  A    between atoms: _519  and  _522
REMARK  220  A    between atoms: _522  and  _523
REMARK  221  A    between atoms: _527  and  _528
REMARK  222  A    between atoms: _533  and  _535
REMARK  223  A    between atoms: _535  and  _536
REMARK  224  A    between atoms: _535  and  _538
REMARK  225  A    between atoms: _541  and  _543
REMARK  226  A    between atoms: _543  and  _544
REMARK  227  A    between atoms: _543  and  _546
REMARK  228  A    between atoms: _546  and  _547
REMARK  229  A    between atoms: _552  and  _554
REMARK  230  A    between atoms: _554  and  _555
REMARK  231  A    between atoms: _554  and  _557
REMARK  232  A    between atoms: _557  and  _558
REMARK  233  A    between atoms: _561  and  _563
REMARK  234  A    between atoms: _563  and  _564
REMARK  235  A    between atoms: _563  and  _566
REMARK  236  A    between atoms: _566  and  _567
REMARK  237  A    between atoms: _570  and  _572
REMARK  238  A    between atoms: _572  and  _573
REMARK  239  A    between atoms: _575  and  _577
REMARK  240  A    between atoms: _577  and  _578
REMARK  241  A    between atoms: _577  and  _580
REMARK  242  A    between atoms: _580  and  _581
REMARK  243  A    between atoms: _581  and  _582
REMARK  244  A    between atoms: _582  and  _583
REMARK  245  A    between atoms: _592  and  _594
REMARK  246  A    between atoms: _594  and  _595
REMARK  247  A    between atoms: _594  and  _597
REMARK  248  A    between atoms: _597  and  _598
REMARK                            x       y       z     vdW  Elec       q    Type
REMARK                         _______ _______ _______ _____ _____    ______ ____
ROOT
ATOM      1  CA  VAL A   1       4.868  25.947  17.849  0.00  0.00    +0.133 C 
ENDROOT
BRANCH   1   2
ATOM      2  CB  VAL A   1       5.815  26.564  16.790  0.00  0.00    +0.023 C 
ATOM      3  CG2 VAL A   1       6.597  25.465  16.074  0.00  0.00    +0.002 C 
ATOM      4  CG1 VAL A   1       5.010  27.382  15.792  0.00  0.00    +0.002 C 
ENDBRANCH   1   2
BRANCH   1   5
ATOM      5  N   VAL A   1       3.930  25.016  17.241  0.00  0.00    -0.239 NA
ATOM      6  H   VAL A   1       3.155  25.385  16.654  0.00  0.00    +0.142 HD
ENDBRANCH   1   5
BRANCH   1   7
ATOM      7  C   VAL A   1       4.128  27.083  18.541  0.00  0.00    +0.224 C 
ATOM      8  O   VAL A   1       2.928  27.255  18.359  0.00  0.00    -0.287 OA
ENDBRANCH   1   7
TORSDOF 3
REMARK  Name = ../refined-set-2016/1d4i/1d4i_pocket.pdb
REMARK  248 active torsions:
REMARK  status: ('A' for Active; 'I' for Inactive)
REMARK    1  A    between atoms: _1  and  _3
REMARK    2  A    between atoms: _3  and  _4
REMARK    3  A    between atoms: _3  and  _6
REMARK    4  A    between atoms: _6  and  _7
REMARK    5  A    between atoms: _7  and  _8
REMARK    6  A    between atoms: _8  and  _9
REMARK    7  A    between atoms: _18  and  _20
REMARK    8  A    between atoms: _20  and  _21
REMARK    9  A    between atoms: _20  and  _23
REMARK   10  A    between atoms: _23  and  _24
REMARK   11  A    between atoms: _27  and  _29
REMARK   12  A    between atoms: _29  and  _30
REMARK   13  A    between atoms: _29  and  _32
REMARK   14  A    between atoms: _32  and  _33
REMARK   15  A    between atoms: _36  and  _38
REMARK   16  A    between atoms: _38  and  _39
REMARK   17  A    between atoms: _38  and  _41
REMARK   18  A    between atoms: _41  and  _42
REMARK   19  A    between atoms: _45  and  _47
REMARK   20  A    between atoms: _47  and  _48
REMARK   21  A    between atoms: _47  and  _50
REMARK   22  A    between atoms: _50  and  _51
REMARK   23  A    between atoms: _54  and  _56
REMARK   24  A    between atoms: _56  and  _57
REMARK   25  A    between atoms: _56  and  _59
REMARK   26  A    between atoms: _59  and  _60
REMARK   27  A    between atoms: _63  and  _65
REMARK   28  A    between atoms: _65  and  _66
REMARK   29  A    between atoms: _68  and  _70
REMARK   30  A    between atoms: _70  and  _71
REMARK   31  A    between atoms: _74  and  _76
REMARK   32  A    between atoms: _76  and  _77
REMARK   33  A    between atoms: _76  and  _79
REMARK   34  A    between atoms: _79  and  _80
REMARK   35  A    between atoms: _83  and  _85
REMARK   36  A    between atoms: _85  and  _86
REMARK   37  A    between atoms: _85  and  _88
REMARK   38  A    between atoms: _88  and  _89
REMARK   39  A    between atoms: _92  and  _94
REMARK   40  A    between atoms: _94  and  _95
REMARK   41  A    between atoms: _94  and  _97
REMARK   42  A    between atoms: _97  and  _98
REMARK   43  A    between atoms: _101  and  _103
REMARK   44  A    between atoms: _103  and  _104
REMARK   45  A    between atoms: _103  and  _106
REMARK   46  A    between atoms: _109  and  _111
REMARK   47  A    between atoms: _111  and  _112
REMARK   48  A    between atoms: _111  and  _114
REMARK   49  A    between atoms: _114  and  _115
REMARK   50  A    between atoms: _118  and  _120
REMARK   51  A    between atoms: _120  and  _121
REMARK   52  A    between atoms: _120  and  _123
REMARK   53  A    between atoms: _123  and  _124
REMARK   54  A    between atoms: _124  and  _125
REMARK   55  A    between atoms: _125  and  _126
REMARK   56  A    between atoms: _126  and  _127
REMARK   57  A    between atoms: _131  and  _133
REMARK   58  A    between atoms: _133  and  _134
REMARK   59  A    between atoms: _133  and  _136
REMARK   60  A    between atoms: _136  and  _137
REMARK   61  A    between atoms: _137  and  _138
REMARK   62  A    between atoms: _140  and  _142
REMARK   63  A    between atoms: _142  and  _143
REMARK   64  A    between atoms: _142  and  _145
REMARK   65  A    between atoms: _145  and  _146
REMARK   66  A    between atoms: _149  and  _151
REMARK   67  A    between atoms: _151  and  _152
REMARK   68  A    between atoms: _154  and  _156
REMARK   69  A    between atoms: _156  and  _157
REMARK   70  A    between atoms: _159  and  _161
REMARK   71  A    between atoms: _161  and  _162
REMARK   72  A    between atoms: _161  and  _164
REMARK   73  A    between atoms: _164  and  _165
REMARK   74  A    between atoms: _168  and  _170
REMARK   75  A    between atoms: _170  and  _171
REMARK   76  A    between atoms: _173  and  _175
REMARK   77  A    between atoms: _175  and  _176
REMARK   78  A    between atoms: _178  and  _180
REMARK   79  A    between atoms: _180  and  _181
REMARK   80  A    between atoms: _180  and  _183
REMARK   81  A    between atoms: _183  and  _184
REMARK   82  A    between atoms: _190  and  _192
REMARK   83  A    between atoms: _192  and  _193
REMARK   84  A    between atoms: _192  and  _195
REMARK   85  A    between atoms: _195  and  _196
REMARK   86  A    between atoms: _199  and  _201
REMARK   87  A    between atoms: _201  and  _202
REMARK   88  A    between atoms: _201  and  _204
REMARK   89  A    between atoms: _207  and  _209
REMARK   90  A    between atoms: _209  and  _210
REMARK   91  A    between atoms: _209  and  _212
REMARK   92  A    between atoms: _212  and  _213
REMARK   93  A    between atoms: _216  and  _218
REMARK   94  A    between atoms: _218  and  _219
REMARK   95  A    between atoms: _218  and  _221
REMARK   96  A    between atoms: _221  and  _222
REMARK   97  A    between atoms: _226  and  _227
REMARK   98  A    between atoms: _232  and  _234
REMARK   99  A    between atoms: _234  and  _235
REMARK  100  A    between atoms: _234  and  _237
REMARK  101  A    between atoms: _240  and  _242
REMARK  102  A    between atoms: _242  and  _243
REMARK  103  A    between atoms: _242  and  _245
REMARK  104  A    between atoms: _245  and  _246
REMARK  105  A    between atoms: _251  and  _253
REMARK  106  A    between atoms: _253  and  _254
REMARK  107  A    between atoms: _253  and  _256
REMARK  108  A    between atoms: _256  and  _257
REMARK  109  A    between atoms: _260  and  _262
REMARK  110  A    between atoms: _262  and  _263
REMARK  111  A    between atoms: _262  and  _265
REMARK  112  A    between atoms: _265  and  _266
REMARK  113  A    between atoms: _269  and  _271
REMARK  114  A    between atoms: _271  and  _272
REMARK  115  A    between atoms: _274  and  _276
REMARK  116  A    between atoms: _276  and  _277
REMARK  117  A    between atoms: _276  and  _279
REMARK  118  A    between atoms: _279  and  _280
REMARK  119  A    between atoms: _280  and  _281
REMARK  120  A    between atoms: _281  and  _282
REMARK  121  A    between atoms: _291  and  _293
REMARK  122  A    between atoms: _293  and  _294
REMARK  123  A    between atoms: _293  and  _296
REMARK  124  A    between atoms: _296  and  _297
REMARK  125  A    between atoms: _302  and  _304
REMARK  126  A    between atoms: _304  and  _305
REMARK  127  A    between atoms: _304  and  _307
REMARK  128  A    between atoms: _307  and  _308
REMARK  129  A    between atoms: _308  and  _309
REMARK  130  A    between atoms: _309  and  _310
REMARK  131  A    between atoms: _319  and  _321
REMARK  132  A    between atoms: _321  and  _322
REMARK  133  A    between atoms: _321  and  _324
REMARK  134  A    between atoms: _324  and  _325
REMARK  135  A    between atoms: _328  and  _330
REMARK  136  A    between atoms: _330  and  _331
REMARK  137  A    between atoms: _330  and  _333
REMARK  138  A    between atoms: _333  and  _334
REMARK  139  A    between atoms: _337  and  _339
REMARK  140  A    between atoms: _339  and  _340
REMARK  141  A    between atoms: _339  and  _342
REMARK  142  A    between atoms: _342  and  _343
REMARK  143  A    between atoms: _346  and  _348
REMARK  144  A    between atoms: _348  and  _349
REMARK  145  A    between atoms: _348  and  _351
REMARK  146  A    between atoms: _351  and  _352
REMARK  147  A    between atoms: _355  and  _357
REMARK  148  A    between atoms: _357  and  _358
REMARK  149  A    between atoms: _357  and  _360
REMARK  150  A    between atoms: _360  and  _361
REMARK  151  A    between atoms: _364  and  _366
REMARK  152  A    between atoms: _366  and  _367
REMARK  153  A    between atoms: _369  and  _371
REMARK  154  A    between atoms: _371  and  _372
REMARK  155  A    between atoms: _375  and  _377
REMARK  156  A    between atoms: _377  and  _378
REMARK  157  A    between atoms: _377  and  _380
REMARK  158  A    between atoms: _380  and  _381
REMARK  159  A    between atoms: _384  and  _386
REMARK  160  A    between atoms: _386  and  _387
REMARK  161  A    between atoms: _386  and  _389
REMARK  162  A    between atoms: _389  and  _390
REMARK  163  A    between atoms: _393  and  _395
REMARK  164  A    between atoms: _395  and  _396
REMARK  165  A    between atoms: _395  and  _398
REMARK  166  A    between atoms: _398  and  _399
REMARK  167  A    between atoms: _402  and  _404
REMARK  168  A    between atoms: _404  and  _405
REMARK  169  A    between atoms: _404  and  _407
REMARK  170  A    between atoms: _410  and  _412
REMARK  171  A    between atoms: _412  and  _413
REMARK  172  A    between atoms: _412  and  _415
REMARK  173  A    between atoms: _415  and  _416
REMARK  174  A    between atoms: _419  and  _421
REMARK  175  A    between atoms: _421  and  _422
REMARK  176  A    between atoms: _421  and  _424
REMARK  177  A    between atoms: _424  and  _425
REMARK  178  A    between atoms: _425  and  _426
REMARK  179  A    between atoms: _426  and  _427
REMARK  180  A    between atoms: _427  and  _428
REMARK  181  A    between atoms: _432  and  _434
REMARK  182  A    between atoms: _434  and  _435
REMARK  183  A    between atoms: _434  and  _437
REMARK  184  A    between atoms: _437  and  _438
REMARK  185  A    between atoms: _438  and  _439
REMARK  186  A    between atoms: _441  and  _443
REMARK  187  A    between atoms: _443  and  _444
REMARK  188  A    between atoms: _443  and  _446
REMARK  189  A    between atoms: _446  and  _447
REMARK  190  A    between atoms: _450  and  _452
REMARK  191  A    between atoms: _452  and  _453
REMARK  192  A    between atoms: _455  and  _457
REMARK  193  A    between atoms: _457  and  _458
REMARK  194  A    between atoms: _460  and  _462
REMARK  195  A    between atoms: _462  and  _463
REMARK  196  A    between atoms: _462  and  _465
REMARK  197  A    between atoms: _465  and  _466
REMARK  198  A    between atoms: _469  and  _471
REMARK  199  A    between atoms: _471  and  _472
REMARK  200  A    between atoms: _474  and  _476
REMARK  201  A    between atoms: _476  and  _477
REMARK  202  A    between atoms: _479  and  _481
REMARK  203  A    between atoms: _481  and  _482
REMARK  204  A    between atoms: _481  and  _484
REMARK  205  A    between atoms: _484  and  _485
REMARK  206  A    between atoms: _491  and  _493
REMARK  207  A    between atoms: _493  and  _494
REMARK  208  A    between atoms: _493  and  _496
REMARK  209  A    between atoms: _496  and  _497
REMARK  210  A    between atoms: _500  and  _502
REMARK  211  A    between atoms: _502  and  _503
REMARK  212  A    between atoms: _502  and  _505
REMARK  213  A    between atoms: _508  and  _510
REMARK  214  A    between atoms: _510  and  _511
REMARK  215  A    between atoms: _510  and  _513
REMARK  216  A    between atoms: _513  and  _514
REMARK  217  A    between atoms: _517  and  _519
REMARK  218  A    between atoms: _519  and  _520
REMARK  219  A    between atoms: _519  and  _522
REMARK  220  A    between atoms: _522  and  _523
REMARK  221  A    between atoms: _527  and  _528
REMARK  222  A    between atoms: _533  and  _535
REMARK  223  A    between atoms: _535  and  _536
REMARK  224  A    between atoms: _535  and  _538
REMARK  225  A    between atoms: _541  and  _543
REMARK  226  A    between atoms: _543  and  _544
REMARK  227  A    between atoms: _543  and  _546
REMARK  228  A    between atoms: _546  and  _547
REMARK  229  A    between atoms: _552  and  _554
REMARK  230  A    between atoms: _554  and  _555
REMARK  231  A    between atoms: _554  and  _557
REMARK  232  A    between atoms: _557  and  _558
REMARK  233  A    between atoms: _561  and  _563
REMARK  234  A    between atoms: _563  and  _564
REMARK  235  A    between atoms: _563  and  _566
REMARK  236  A    between atoms: _566  and  _567
REMARK  237  A    between atoms: _570  and  _572
REMARK  238  A    between atoms: _572  and  _573
REMARK  239  A    between atoms: _575  and  _577
REMARK  240  A    between atoms: _577  and  _578
REMARK  241  A    between atoms: _577  and  _580
REMARK  242  A    between atoms: _580  and  _581
REMARK  243  A    between atoms: _581  and  _582
REMARK  244  A    between atoms: _582  and  _583
REMARK  245  A    between atoms: _592  and  _594
REMARK  246  A    between atoms: _594  and  _595
REMARK  247  A    between atoms: _594  and  _597
REMARK  248  A    between atoms: _597  and  _598
REMARK                            x       y       z     vdW  Elec       q    Type
REMARK                         _______ _______ _______ _____ _____    ______ ____
ROOT
ATOM      1  CA  LEU A   1       8.294  30.743  16.682  0.00  0.00    +0.133 C 
ENDROOT
BRANCH   1   2
ATOM      2  N   LEU A   1       9.066  31.910  16.298  0.00  0.00    -0.239 NA
ATOM      3  H   LEU A   1       9.735  31.842  15.505  0.00  0.00    +0.142 HD
ENDBRANCH   1   2
BRANCH   1   4
ATOM      4  C   LEU A   1       9.175  29.858  17.549  0.00  0.00    +0.224 C 
ATOM      5  O   LEU A   1      10.379  29.763  17.327  0.00  0.00    -0.287 OA
ENDBRANCH   1   4
BRANCH   1   6
ATOM      6  CB  LEU A   1       7.851  29.970  15.436  0.00  0.00    +0.025 C 
BRANCH   6   7
ATOM      7  CG  LEU A   1       7.166  30.822  14.361  0.00  0.00    +0.002 C 
ATOM      8  CD2 LEU A   1       5.914  31.459  14.933  0.00  0.00    +0.000 C 
ATOM      9  CD1 LEU A   1       6.827  29.949  13.158  0.00  0.00    +0.000 C 
ENDBRANCH   6   7
ENDBRANCH   1   6
TORSDOF 4
REMARK  Name = ../refined-set-2016/1d4i/1d4i_pocket.pdb
REMARK  248 active torsions:
REMARK  status: ('A' for Active; 'I' for Inactive)
REMARK    1  A    between atoms: _1  and  _3
REMARK    2  A    between atoms: _3  and  _4
REMARK    3  A    between atoms: _3  and  _6
REMARK    4  A    between atoms: _6  and  _7
REMARK    5  A    between atoms: _7  and  _8
REMARK    6  A    between atoms: _8  and  _9
REMARK    7  A    between atoms: _18  and  _20
REMARK    8  A    between atoms: _20  and  _21
REMARK    9  A    between atoms: _20  and  _23
REMARK   10  A    between atoms: _23  and  _24
REMARK   11  A    between atoms: _27  and  _29
REMARK   12  A    between atoms: _29  and  _30
REMARK   13  A    between atoms: _29  and  _32
REMARK   14  A    between atoms: _32  and  _33
REMARK   15  A    between atoms: _36  and  _38
REMARK   16  A    between atoms: _38  and  _39
REMARK   17  A    between atoms: _38  and  _41
REMARK   18  A    between atoms: _41  and  _42
REMARK   19  A    between atoms: _45  and  _47
REMARK   20  A    between atoms: _47  and  _48
REMARK   21  A    between atoms: _47  and  _50
REMARK   22  A    between atoms: _50  and  _51
REMARK   23  A    between atoms: _54  and  _56
REMARK   24  A    between atoms: _56  and  _57
REMARK   25  A    between atoms: _56  and  _59
REMARK   26  A    between atoms: _59  and  _60
REMARK   27  A    between atoms: _63  and  _65
REMARK   28  A    between atoms: _65  and  _66
REMARK   29  A    between atoms: _68  and  _70
REMARK   30  A    between atoms: _70  and  _71
REMARK   31  A    between atoms: _74  and  _76
REMARK   32  A    between atoms: _76  and  _77
REMARK   33  A    between atoms: _76  and  _79
REMARK   34  A    between atoms: _79  and  _80
REMARK   35  A    between atoms: _83  and  _85
REMARK   36  A    between atoms: _85  and  _86
REMARK   37  A    between atoms: _85  and  _88
REMARK   38  A    between atoms: _88  and  _89
REMARK   39  A    between atoms: _92  and  _94
REMARK   40  A    between atoms: _94  and  _95
REMARK   41  A    between atoms: _94  and  _97
REMARK   42  A    between atoms: _97  and  _98
REMARK   43  A    between atoms: _101  and  _103
REMARK   44  A    between atoms: _103  and  _104
REMARK   45  A    between atoms: _103  and  _106
REMARK   46  A    between atoms: _109  and  _111
REMARK   47  A    between atoms: _111  and  _112
REMARK   48  A    between atoms: _111  and  _114
REMARK   49  A    between atoms: _114  and  _115
REMARK   50  A    between atoms: _118  and  _120
REMARK   51  A    between atoms: _120  and  _121
REMARK   52  A    between atoms: _120  and  _123
REMARK   53  A    between atoms: _123  and  _124
REMARK   54  A    between atoms: _124  and  _125
REMARK   55  A    between atoms: _125  and  _126
REMARK   56  A    between atoms: _126  and  _127
REMARK   57  A    between atoms: _131  and  _133
REMARK   58  A    between atoms: _133  and  _134
REMARK   59  A    between atoms: _133  and  _136
REMARK   60  A    between atoms: _136  and  _137
REMARK   61  A    between atoms: _137  and  _138
REMARK   62  A    between atoms: _140  and  _142
REMARK   63  A    between atoms: _142  and  _143
REMARK   64  A    between atoms: _142  and  _145
REMARK   65  A    between atoms: _145  and  _146
REMARK   66  A    between atoms: _149  and  _151
REMARK   67  A    between atoms: _151  and  _152
REMARK   68  A    between atoms: _154  and  _156
REMARK   69  A    between atoms: _156  and  _157
REMARK   70  A    between atoms: _159  and  _161
REMARK   71  A    between atoms: _161  and  _162
REMARK   72  A    between atoms: _161  and  _164
REMARK   73  A    between atoms: _164  and  _165
REMARK   74  A    between atoms: _168  and  _170
REMARK   75  A    between atoms: _170  and  _171
REMARK   76  A    between atoms: _173  and  _175
REMARK   77  A    between atoms: _175  and  _176
REMARK   78  A    between atoms: _178  and  _180
REMARK   79  A    between atoms: _180  and  _181
REMARK   80  A    between atoms: _180  and  _183
REMARK   81  A    between atoms: _183  and  _184
REMARK   82  A    between atoms: _190  and  _192
REMARK   83  A    between atoms: _192  and  _193
REMARK   84  A    between atoms: _192  and  _195
REMARK   85  A    between atoms: _195  and  _196
REMARK   86  A    between atoms: _199  and  _201
REMARK   87  A    between atoms: _201  and  _202
REMARK   88  A    between atoms: _201  and  _204
REMARK   89  A    between atoms: _207  and  _209
REMARK   90  A    between atoms: _209  and  _210
REMARK   91  A    between atoms: _209  and  _212
REMARK   92  A    between atoms: _212  and  _213
REMARK   93  A    between atoms: _216  and  _218
REMARK   94  A    between atoms: _218  and  _219
REMARK   95  A    between atoms: _218  and  _221
REMARK   96  A    between atoms: _221  and  _222
REMARK   97  A    between atoms: _226  and  _227
REMARK   98  A    between atoms: _232  and  _234
REMARK   99  A    between atoms: _234  and  _235
REMARK  100  A    between atoms: _234  and  _237
REMARK  101  A    between atoms: _240  and  _242
REMARK  102  A    between atoms: _242  and  _243
REMARK  103  A    between atoms: _242  and  _245
REMARK  104  A    between atoms: _245  and  _246
REMARK  105  A    between atoms: _251  and  _253
REMARK  106  A    between atoms: _253  and  _254
REMARK  107  A    between atoms: _253  and  _256
REMARK  108  A    between atoms: _256  and  _257
REMARK  109  A    between atoms: _260  and  _262
REMARK  110  A    between atoms: _262  and  _263
REMARK  111  A    between atoms: _262  and  _265
REMARK  112  A    between atoms: _265  and  _266
REMARK  113  A    between atoms: _269  and  _271
REMARK  114  A    between atoms: _271  and  _272
REMARK  115  A    between atoms: _274  and  _276
REMARK  116  A    between atoms: _276  and  _277
REMARK  117  A    between atoms: _276  and  _279
REMARK  118  A    between atoms: _279  and  _280
REMARK  119  A    between atoms: _280  and  _281
REMARK  120  A    between atoms: _281  and  _282
REMARK  121  A    between atoms: _291  and  _293
REMARK  122  A    between atoms: _293  and  _294
REMARK  123  A    between atoms: _293  and  _296
REMARK  124  A    between atoms: _296  and  _297
REMARK  125  A    between atoms: _302  and  _304
REMARK  126  A    between atoms: _304  and  _305
REMARK  127  A    between atoms: _304  and  _307
REMARK  128  A    between atoms: _307  and  _308
REMARK  129  A    between atoms: _308  and  _309
REMARK  130  A    between atoms: _309  and  _310
REMARK  131  A    between atoms: _319  and  _321
REMARK  132  A    between atoms: _321  and  _322
REMARK  133  A    between atoms: _321  and  _324
REMARK  134  A    between atoms: _324  and  _325
REMARK  135  A    between atoms: _328  and  _330
REMARK  136  A    between atoms: _330  and  _331
REMARK  137  A    between atoms: _330  and  _333
REMARK  138  A    between atoms: _333  and  _334
REMARK  139  A    between atoms: _337  and  _339
REMARK  140  A    between atoms: _339  and  _340
REMARK  141  A    between atoms: _339  and  _342
REMARK  142  A    between atoms: _342  and  _343
REMARK  143  A    between atoms: _346  and  _348
REMARK  144  A    between atoms: _348  and  _349
REMARK  145  A    between atoms: _348  and  _351
REMARK  146  A    between atoms: _351  and  _352
REMARK  147  A    between atoms: _355  and  _357
REMARK  148  A    between atoms: _357  and  _358
REMARK  149  A    between atoms: _357  and  _360
REMARK  150  A    between atoms: _360  and  _361
REMARK  151  A    between atoms: _364  and  _366
REMARK  152  A    between atoms: _366  and  _367
REMARK  153  A    between atoms: _369  and  _371
REMARK  154  A    between atoms: _371  and  _372
REMARK  155  A    between atoms: _375  and  _377
REMARK  156  A    between atoms: _377  and  _378
REMARK  157  A    between atoms: _377  and  _380
REMARK  158  A    between atoms: _380  and  _381
REMARK  159  A    between atoms: _384  and  _386
REMARK  160  A    between atoms: _386  and  _387
REMARK  161  A    between atoms: _386  and  _389
REMARK  162  A    between atoms: _389  and  _390
REMARK  163  A    between atoms: _393  and  _395
REMARK  164  A    between atoms: _395  and  _396
REMARK  165  A    between atoms: _395  and  _398
REMARK  166  A    between atoms: _398  and  _399
REMARK  167  A    between atoms: _402  and  _404
REMARK  168  A    between atoms: _404  and  _405
REMARK  169  A    between atoms: _404  and  _407
REMARK  170  A    between atoms: _410  and  _412
REMARK  171  A    between atoms: _412  and  _413
REMARK  172  A    between atoms: _412  and  _415
REMARK  173  A    between atoms: _415  and  _416
REMARK  174  A    between atoms: _419  and  _421
REMARK  175  A    between atoms: _421  and  _422
REMARK  176  A    between atoms: _421  and  _424
REMARK  177  A    between atoms: _424  and  _425
REMARK  178  A    between atoms: _425  and  _426
REMARK  179  A    between atoms: _426  and  _427
REMARK  180  A    between atoms: _427  and  _428
REMARK  181  A    between atoms: _432  and  _434
REMARK  182  A    between atoms: _434  and  _435
REMARK  183  A    between atoms: _434  and  _437
REMARK  184  A    between atoms: _437  and  _438
REMARK  185  A    between atoms: _438  and  _439
REMARK  186  A    between atoms: _441  and  _443
REMARK  187  A    between atoms: _443  and  _444
REMARK  188  A    between atoms: _443  and  _446
REMARK  189  A    between atoms: _446  and  _447
REMARK  190  A    between atoms: _450  and  _452
REMARK  191  A    between atoms: _452  and  _453
REMARK  192  A    between atoms: _455  and  _457
REMARK  193  A    between atoms: _457  and  _458
REMARK  194  A    between atoms: _460  and  _462
REMARK  195  A    between atoms: _462  and  _463
REMARK  196  A    between atoms: _462  and  _465
REMARK  197  A    between atoms: _465  and  _466
REMARK  198  A    between atoms: _469  and  _471
REMARK  199  A    between atoms: _471  and  _472
REMARK  200  A    between atoms: _474  and  _476
REMARK  201  A    between atoms: _476  and  _477
REMARK  202  A    between atoms: _479  and  _481
REMARK  203  A    between atoms: _481  and  _482
REMARK  204  A    between atoms: _481  and  _484
REMARK  205  A    between atoms: _484  and  _485
REMARK  206  A    between atoms: _491  and  _493
REMARK  207  A    between atoms: _493  and  _494
REMARK  208  A    between atoms: _493  and  _496
REMARK  209  A    between atoms: _496  and  _497
REMARK  210  A    between atoms: _500  and  _502
REMARK  211  A    between atoms: _502  and  _503
REMARK  212  A    between atoms: _502  and  _505
REMARK  213  A    between atoms: _508  and  _510
REMARK  214  A    between atoms: _510  and  _511
REMARK  215  A    between atoms: _510  and  _513
REMARK  216  A    between atoms: _513  and  _514
REMARK  217  A    between atoms: _517  and  _519
REMARK  218  A    between atoms: _519  and  _520
REMARK  219  A    between atoms: _519  and  _522
REMARK  220  A    between atoms: _522  and  _523
REMARK  221  A    between atoms: _527  and  _528
REMARK  222  A    between atoms: _533  and  _535
REMARK  223  A    between atoms: _535  and  _536
REMARK  224  A    between atoms: _535  and  _538
REMARK  225  A    between atoms: _541  and  _543
REMARK  226  A    between atoms: _543  and  _544
REMARK  227  A    between atoms: _543  and  _546
REMARK  228  A    between atoms: _546  and  _547
REMARK  229  A    between atoms: _552  and  _554
REMARK  230  A    between atoms: _554  and  _555
REMARK  231  A    between atoms: _554  and  _557
REMARK  232  A    between atoms: _557  and  _558
REMARK  233  A    between atoms: _561  and  _563
REMARK  234  A    between atoms: _563  and  _564
REMARK  235  A    between atoms: _563  and  _566
REMARK  236  A    between atoms: _566  and  _567
REMARK  237  A    between atoms: _570  and  _572
REMARK  238  A    between atoms: _572  and  _573
REMARK  239  A    between atoms: _575  and  _577
REMARK  240  A    between atoms: _577  and  _578
REMARK  241  A    between atoms: _577  and  _580
REMARK  242  A    between atoms: _580  and  _581
REMARK  243  A    between atoms: _581  and  _582
REMARK  244  A    between atoms: _582  and  _583
REMARK  245  A    between atoms: _592  and  _594
REMARK  246  A    between atoms: _594  and  _595
REMARK  247  A    between atoms: _594  and  _597
REMARK  248  A    between atoms: _597  and  _598
REMARK                            x       y       z     vdW  Elec       q    Type
REMARK                         _______ _______ _______ _____ _____    ______ ____
ROOT
ATOM      1  C   ILE A   5      15.896  29.876  11.862  0.00  0.00    +0.241 C 
ATOM      2  O   ILE A   5      14.952  30.357  12.475  0.00  0.00    -0.273 OA
ATOM      3  N   ILE A   6      16.716  30.599  11.109  0.00  0.00    -0.297 N 
ATOM      4  H   ILE A   6      17.534  30.139  10.661  0.00  0.00    +0.150 HD
ENDROOT
BRANCH   3   5
ATOM      5  CA  ILE A   6      16.496  32.020  10.896  0.00  0.00    +0.149 C 
BRANCH   5   6
ATOM      6  C   ILE A   6      15.856  32.078   9.513  0.00  0.00    +0.241 C 
ATOM      7  N   GLY A   7      14.569  32.409   9.472  0.00  0.00    -0.295 N 
ATOM      8  H   GLY A   7      14.067  32.631  10.356  0.00  0.00    +0.150 HD
ATOM      9  O   ILE A   6      16.516  31.808   8.509  0.00  0.00    -0.273 OA
BRANCH   7  10
ATOM     10  CA  GLY A   7      13.856  32.465   8.210  0.00  0.00    +0.176 C 
BRANCH  10  11
ATOM     11  C   GLY A   7      13.824  33.819   7.530  0.00  0.00    +0.243 C 
ATOM     12  O   GLY A   7      14.415  34.791   8.004  0.00  0.00    -0.273 OA
ATOM     13  N   ARG A   8      13.108  33.877   6.414  0.00  0.00    -0.297 N 
ATOM     14  H   ARG A   8      12.604  33.025   6.096  0.00  0.00    +0.150 HD
BRANCH  13  15
ATOM     15  CA  ARG A   8      13.005  35.092   5.621  0.00  0.00    +0.149 C 
BRANCH  15  16
ATOM     16  C   ARG A   8      12.484  36.322   6.348  0.00  0.00    +0.241 C 
ATOM     17  N   ASN A   9      11.568  36.135   7.295  0.00  0.00    -0.298 N 
ATOM     18  H   ASN A   9      11.249  35.172   7.525  0.00  0.00    +0.150 HD
ATOM     19  O   ARG A   8      12.913  37.437   6.042  0.00  0.00    -0.273 OA
BRANCH  17  20
ATOM     20  CA  ASN A   9      11.008  37.280   8.014  0.00  0.00    +0.146 C 
BRANCH  20  21
ATOM     21  C   ASN A   9      12.099  38.080   8.719  0.00  0.00    +0.227 C 
ATOM     22  O   ASN A   9      11.954  39.286   8.929  0.00  0.00    -0.286 OA
ENDBRANCH  20  21
BRANCH  20  23
ATOM     23  CB  ASN A   9       9.936  36.829   9.020  0.00  0.00    +0.112 C 
BRANCH  23  24
ATOM     24  CG  ASN A   9      10.518  36.123  10.229  0.00  0.00    +0.222 C 
ATOM     25  ND2 ASN A   9      10.192  36.620  11.420  0.00  0.00    -0.329 N 
ATOM     26 HD21 ASN A   9      10.559  36.177  12.286  0.00  0.00    +0.145 HD
ATOM     27 HD22 ASN A   9       9.571  37.452  11.484  0.00  0.00    +0.145 HD
ATOM     28  OD1 ASN A   9      11.248  35.143  10.096  0.00  0.00    -0.275 OA
ENDBRANCH  23  24
ENDBRANCH  20  23
ENDBRANCH  17  20
ENDBRANCH  15  16
BRANCH  15  29
ATOM     29  CB  ARG A   8      12.138  34.841   4.379  0.00  0.00    +0.033 C 
BRANCH  29  30
ATOM     30  CG  ARG A   8      12.774  33.882   3.376  0.00  0.00    +0.045 C 
BRANCH  30  31
ATOM     31  CD  ARG A   8      12.024  33.844   2.046  0.00  0.00    +0.174 C 
BRANCH  31  32
ATOM     32  NE  ARG A   8      10.634  33.434   2.214  0.00  0.00    -0.265 N 
ATOM     33  HE  ARG A   8      10.440  32.418   2.320  0.00  0.00    +0.259 HD
ATOM     34  CZ  ARG A   8       9.598  34.267   2.241  0.00  0.00    +0.342 C 
ATOM     35  NH2 ARG A   8       8.372  33.790   2.428  0.00  0.00    -0.292 N 
ATOM     36 HH21 ARG A   8       8.225  32.768   2.553  0.00  0.00    +0.255 HD
ATOM     37 HH22 ARG A   8       7.559  34.439   2.450  0.00  0.00    +0.255 HD
ATOM     38  NH1 ARG A   8       9.784  35.575   2.101  0.00  0.00    -0.292 N 
ATOM     39 HH11 ARG A   8       8.970  36.221   2.123  0.00  0.00    +0.255 HD
ATOM     40 HH12 ARG A   8      10.744  35.953   1.969  0.00  0.00    +0.255 HD
ENDBRANCH  31  32
ENDBRANCH  30  31
ENDBRANCH  29  30
ENDBRANCH  15  29
ENDBRANCH  13  15
ENDBRANCH  10  11
ENDBRANCH   7  10
ENDBRANCH   5   6
BRANCH   5  41
ATOM     41  CB  ILE A   6      17.814  32.823  10.870  0.00  0.00    +0.027 C 
ATOM     42  CG2 ILE A   6      17.524  34.286  10.551  0.00  0.00    +0.002 C 
BRANCH  41  43
ATOM     43  CG1 ILE A   6      18.530  32.696  12.215  0.00  0.00    +0.002 C 
ATOM     44  CD1 ILE A   6      17.682  33.067  13.410  0.00  0.00    +0.000 C 
ENDBRANCH  41  43
ENDBRANCH   5  41
ENDBRANCH   3   5
BRANCH   1  45
ATOM     45  CA  ILE A   5      16.189  28.385  11.942  0.00  0.00    +0.149 C 
BRANCH  45  47
ATOM     46  C   ASN A   4      17.424  27.278  13.715  0.00  0.00    +0.241 C 
ATOM     47  N   ILE A   5      16.317  27.879  13.298  0.00  0.00    -0.297 N 
ATOM     48  H   ILE A   5      15.521  27.991  13.958  0.00  0.00    +0.150 HD
ATOM     49  O   ASN A   4      18.430  27.154  13.019  0.00  0.00    -0.273 OA
BRANCH  46  50
ATOM     50  CA  ASN A   4      17.388  26.742  15.136  0.00  0.00    +0.158 C 
BRANCH  50  52
ATOM     51  C   VAL A   3      17.103  24.403  14.590  0.00  0.00    +0.241 C 
ATOM     52  N   ASN A   4      17.863  25.365  15.108  0.00  0.00    -0.297 N 
ATOM     53  H   ASN A   4      18.800  25.133  15.495  0.00  0.00    +0.150 HD
ATOM     54  O   VAL A   3      15.974  24.613  14.145  0.00  0.00    -0.273 OA
BRANCH  51  55
ATOM     55  CA  VAL A   3      17.683  22.994  14.583  0.00  0.00    +0.149 C 
BRANCH  55  58
ATOM     56  C   PRO A   2      16.743  20.842  15.184  0.00  0.00    +0.241 C 
ATOM     57  O   PRO A   2      17.772  20.515  15.778  0.00  0.00    -0.273 OA
ATOM     58  N   VAL A   3      16.604  22.017  14.585  0.00  0.00    -0.297 N 
ATOM     59  H   VAL A   3      15.708  22.244  14.108  0.00  0.00    +0.150 HD
BRANCH  56  63
ATOM     60  C   THR A   1      13.770  21.399  15.922  0.00  0.00    +0.244 C 
ATOM     61  O   THR A   1      14.373  21.601  16.977  0.00  0.00    -0.273 OA
ATOM     62  N   PRO A   2      14.262  20.593  14.968  0.00  0.00    -0.272 N 
ATOM     63  CA  PRO A   2      15.548  19.895  15.096  0.00  0.00    +0.152 C 
ATOM     64  CB  PRO A   2      15.609  19.037  13.829  0.00  0.00    +0.031 C 
ATOM     65  CG  PRO A   2      14.178  18.873  13.436  0.00  0.00    +0.024 C 
ATOM     66  CD  PRO A   2      13.610  20.240  13.697  0.00  0.00    +0.094 C 
BRANCH  60  67
ATOM     67  CA  THR A   1      12.414  22.059  15.660  0.00  0.00    +0.172 C 
BRANCH  67  68
ATOM     68  N   THR A   1      11.666  22.066  16.911  0.00  0.00    -0.236 NA
ATOM     69  H   THR A   1      11.648  22.927  17.493  0.00  0.00    +0.142 HD
ENDBRANCH  67  68
BRANCH  67  70
ATOM     70  CB  THR A   1      12.627  23.493  15.113  0.00  0.00    +0.135 C 
ATOM     71  CG2 THR A   1      13.325  24.374  16.151  0.00  0.00    +0.034 C 
BRANCH  70  72
ATOM     72  OG1 THR A   1      13.428  23.435  13.926  0.00  0.00    -0.383 OA
ATOM     73  HG1 THR A   1      14.305  23.029  14.141  0.00  0.00    +0.210 HD
ENDBRANCH  70  72
ENDBRANCH  67  70
ENDBRANCH  60  67
ENDBRANCH  56  63
ENDBRANCH  55  58
BRANCH  55  74
ATOM     74  CB  VAL A   3      18.572  22.812  13.330  0.00  0.00    +0.027 C 
ATOM     75  CG2 VAL A   3      19.694  23.824  13.330  0.00  0.00    +0.002 C 
ATOM     76  CG1 VAL A   3      17.734  22.950  12.075  0.00  0.00    +0.002 C 
ENDBRANCH  55  74
ENDBRANCH  51  55
ENDBRANCH  50  52
BRANCH  50  77
ATOM     77  CB  ASN A   4      18.251  27.595  16.063  0.00  0.00    +0.114 C 
BRANCH  77  78
ATOM     78  CG  ASN A   4      18.110  27.181  17.515  0.00  0.00    +0.222 C 
ATOM     79  ND2 ASN A   4      19.233  27.075  18.217  0.00  0.00    -0.329 N 
ATOM     80 HD21 ASN A   4      19.196  26.798  19.219  0.00  0.00    +0.145 HD
ATOM     81 HD22 ASN A   4      20.149  27.269  17.765  0.00  0.00    +0.145 HD
ATOM     82  OD1 ASN A   4      16.998  26.963  17.999  0.00  0.00    -0.275 OA
ENDBRANCH  77  78
ENDBRANCH  50  77
ENDBRANCH  46  50
ENDBRANCH  45  47
BRANCH  45  83
ATOM     83  CB  ILE A   5      15.046  27.639  11.216  0.00  0.00    +0.027 C 
ATOM     84  CG2 ILE A   5      14.805  28.248   9.829  0.00  0.00    +0.002 C 
BRANCH  83  85
ATOM     85  CG1 ILE A   5      15.379  26.151  11.117  0.00  0.00    +0.002 C 
ATOM     86  CD1 ILE A   5      14.197  25.306  10.677  0.00  0.00    +0.000 C 
ENDBRANCH  83  85
ENDBRANCH  45  83
ENDBRANCH   1  45
TORSDOF 32
REMARK  Name = ../refined-set-2016/1d4i/1d4i_pocket.pdb
REMARK  248 active torsions:
REMARK  status: ('A' for Active; 'I' for Inactive)
REMARK    1  A    between atoms: _1  and  _3
REMARK    2  A    between atoms: _3  and  _4
REMARK    3  A    between atoms: _3  and  _6
REMARK    4  A    between atoms: _6  and  _7
REMARK    5  A    between atoms: _7  and  _8
REMARK    6  A    between atoms: _8  and  _9
REMARK    7  A    between atoms: _18  and  _20
REMARK    8  A    between atoms: _20  and  _21
REMARK    9  A    between atoms: _20  and  _23
REMARK   10  A    between atoms: _23  and  _24
REMARK   11  A    between atoms: _27  and  _29
REMARK   12  A    between atoms: _29  and  _30
REMARK   13  A    between atoms: _29  and  _32
REMARK   14  A    between atoms: _32  and  _33
REMARK   15  A    between atoms: _36  and  _38
REMARK   16  A    between atoms: _38  and  _39
REMARK   17  A    between atoms: _38  and  _41
REMARK   18  A    between atoms: _41  and  _42
REMARK   19  A    between atoms: _45  and  _47
REMARK   20  A    between atoms: _47  and  _48
REMARK   21  A    between atoms: _47  and  _50
REMARK   22  A    between atoms: _50  and  _51
REMARK   23  A    between atoms: _54  and  _56
REMARK   24  A    between atoms: _56  and  _57
REMARK   25  A    between atoms: _56  and  _59
REMARK   26  A    between atoms: _59  and  _60
REMARK   27  A    between atoms: _63  and  _65
REMARK   28  A    between atoms: _65  and  _66
REMARK   29  A    between atoms: _68  and  _70
REMARK   30  A    between atoms: _70  and  _71
REMARK   31  A    between atoms: _74  and  _76
REMARK   32  A    between atoms: _76  and  _77
REMARK   33  A    between atoms: _76  and  _79
REMARK   34  A    between atoms: _79  and  _80
REMARK   35  A    between atoms: _83  and  _85
REMARK   36  A    between atoms: _85  and  _86
REMARK   37  A    between atoms: _85  and  _88
REMARK   38  A    between atoms: _88  and  _89
REMARK   39  A    between atoms: _92  and  _94
REMARK   40  A    between atoms: _94  and  _95
REMARK   41  A    between atoms: _94  and  _97
REMARK   42  A    between atoms: _97  and  _98
REMARK   43  A    between atoms: _101  and  _103
REMARK   44  A    between atoms: _103  and  _104
REMARK   45  A    between atoms: _103  and  _106
REMARK   46  A    between atoms: _109  and  _111
REMARK   47  A    between atoms: _111  and  _112
REMARK   48  A    between atoms: _111  and  _114
REMARK   49  A    between atoms: _114  and  _115
REMARK   50  A    between atoms: _118  and  _120
REMARK   51  A    between atoms: _120  and  _121
REMARK   52  A    between atoms: _120  and  _123
REMARK   53  A    between atoms: _123  and  _124
REMARK   54  A    between atoms: _124  and  _125
REMARK   55  A    between atoms: _125  and  _126
REMARK   56  A    between atoms: _126  and  _127
REMARK   57  A    between atoms: _131  and  _133
REMARK   58  A    between atoms: _133  and  _134
REMARK   59  A    between atoms: _133  and  _136
REMARK   60  A    between atoms: _136  and  _137
REMARK   61  A    between atoms: _137  and  _138
REMARK   62  A    between atoms: _140  and  _142
REMARK   63  A    between atoms: _142  and  _143
REMARK   64  A    between atoms: _142  and  _145
REMARK   65  A    between atoms: _145  and  _146
REMARK   66  A    between atoms: _149  and  _151
REMARK   67  A    between atoms: _151  and  _152
REMARK   68  A    between atoms: _154  and  _156
REMARK   69  A    between atoms: _156  and  _157
REMARK   70  A    between atoms: _159  and  _161
REMARK   71  A    between atoms: _161  and  _162
REMARK   72  A    between atoms: _161  and  _164
REMARK   73  A    between atoms: _164  and  _165
REMARK   74  A    between atoms: _168  and  _170
REMARK   75  A    between atoms: _170  and  _171
REMARK   76  A    between atoms: _173  and  _175
REMARK   77  A    between atoms: _175  and  _176
REMARK   78  A    between atoms: _178  and  _180
REMARK   79  A    between atoms: _180  and  _181
REMARK   80  A    between atoms: _180  and  _183
REMARK   81  A    between atoms: _183  and  _184
REMARK   82  A    between atoms: _190  and  _192
REMARK   83  A    between atoms: _192  and  _193
REMARK   84  A    between atoms: _192  and  _195
REMARK   85  A    between atoms: _195  and  _196
REMARK   86  A    between atoms: _199  and  _201
REMARK   87  A    between atoms: _201  and  _202
REMARK   88  A    between atoms: _201  and  _204
REMARK   89  A    between atoms: _207  and  _209
REMARK   90  A    between atoms: _209  and  _210
REMARK   91  A    between atoms: _209  and  _212
REMARK   92  A    between atoms: _212  and  _213
REMARK   93  A    between atoms: _216  and  _218
REMARK   94  A    between atoms: _218  and  _219
REMARK   95  A    between atoms: _218  and  _221
REMARK   96  A    between atoms: _221  and  _222
REMARK   97  A    between atoms: _226  and  _227
REMARK   98  A    between atoms: _232  and  _234
REMARK   99  A    between atoms: _234  and  _235
REMARK  100  A    between atoms: _234  and  _237
REMARK  101  A    between atoms: _240  and  _242
REMARK  102  A    between atoms: _242  and  _243
REMARK  103  A    between atoms: _242  and  _245
REMARK  104  A    between atoms: _245  and  _246
REMARK  105  A    between atoms: _251  and  _253
REMARK  106  A    between atoms: _253  and  _254
REMARK  107  A    between atoms: _253  and  _256
REMARK  108  A    between atoms: _256  and  _257
REMARK  109  A    between atoms: _260  and  _262
REMARK  110  A    between atoms: _262  and  _263
REMARK  111  A    between atoms: _262  and  _265
REMARK  112  A    between atoms: _265  and  _266
REMARK  113  A    between atoms: _269  and  _271
REMARK  114  A    between atoms: _271  and  _272
REMARK  115  A    between atoms: _274  and  _276
REMARK  116  A    between atoms: _276  and  _277
REMARK  117  A    between atoms: _276  and  _279
REMARK  118  A    between atoms: _279  and  _280
REMARK  119  A    between atoms: _280  and  _281
REMARK  120  A    between atoms: _281  and  _282
REMARK  121  A    between atoms: _291  and  _293
REMARK  122  A    between atoms: _293  and  _294
REMARK  123  A    between atoms: _293  and  _296
REMARK  124  A    between atoms: _296  and  _297
REMARK  125  A    between atoms: _302  and  _304
REMARK  126  A    between atoms: _304  and  _305
REMARK  127  A    between atoms: _304  and  _307
REMARK  128  A    between atoms: _307  and  _308
REMARK  129  A    between atoms: _308  and  _309
REMARK  130  A    between atoms: _309  and  _310
REMARK  131  A    between atoms: _319  and  _321
REMARK  132  A    between atoms: _321  and  _322
REMARK  133  A    between atoms: _321  and  _324
REMARK  134  A    between atoms: _324  and  _325
REMARK  135  A    between atoms: _328  and  _330
REMARK  136  A    between atoms: _330  and  _331
REMARK  137  A    between atoms: _330  and  _333
REMARK  138  A    between atoms: _333  and  _334
REMARK  139  A    between atoms: _337  and  _339
REMARK  140  A    between atoms: _339  and  _340
REMARK  141  A    between atoms: _339  and  _342
REMARK  142  A    between atoms: _342  and  _343
REMARK  143  A    between atoms: _346  and  _348
REMARK  144  A    between atoms: _348  and  _349
REMARK  145  A    between atoms: _348  and  _351
REMARK  146  A    between atoms: _351  and  _352
REMARK  147  A    between atoms: _355  and  _357
REMARK  148  A    between atoms: _357  and  _358
REMARK  149  A    between atoms: _357  and  _360
REMARK  150  A    between atoms: _360  and  _361
REMARK  151  A    between atoms: _364  and  _366
REMARK  152  A    between atoms: _366  and  _367
REMARK  153  A    between atoms: _369  and  _371
REMARK  154  A    between atoms: _371  and  _372
REMARK  155  A    between atoms: _375  and  _377
REMARK  156  A    between atoms: _377  and  _378
REMARK  157  A    between atoms: _377  and  _380
REMARK  158  A    between atoms: _380  and  _381
REMARK  159  A    between atoms: _384  and  _386
REMARK  160  A    between atoms: _386  and  _387
REMARK  161  A    between atoms: _386  and  _389
REMARK  162  A    between atoms: _389  and  _390
REMARK  163  A    between atoms: _393  and  _395
REMARK  164  A    between atoms: _395  and  _396
REMARK  165  A    between atoms: _395  and  _398
REMARK  166  A    between atoms: _398  and  _399
REMARK  167  A    between atoms: _402  and  _404
REMARK  168  A    between atoms: _404  and  _405
REMARK  169  A    between atoms: _404  and  _407
REMARK  170  A    between atoms: _410  and  _412
REMARK  171  A    between atoms: _412  and  _413
REMARK  172  A    between atoms: _412  and  _415
REMARK  173  A    between atoms: _415  and  _416
REMARK  174  A    between atoms: _419  and  _421
REMARK  175  A    between atoms: _421  and  _422
REMARK  176  A    between atoms: _421  and  _424
REMARK  177  A    between atoms: _424  and  _425
REMARK  178  A    between atoms: _425  and  _426
REMARK  179  A    between atoms: _426  and  _427
REMARK  180  A    between atoms: _427  and  _428
REMARK  181  A    between atoms: _432  and  _434
REMARK  182  A    between atoms: _434  and  _435
REMARK  183  A    between atoms: _434  and  _437
REMARK  184  A    between atoms: _437  and  _438
REMARK  185  A    between atoms: _438  and  _439
REMARK  186  A    between atoms: _441  and  _443
REMARK  187  A    between atoms: _443  and  _444
REMARK  188  A    between atoms: _443  and  _446
REMARK  189  A    between atoms: _446  and  _447
REMARK  190  A    between atoms: _450  and  _452
REMARK  191  A    between atoms: _452  and  _453
REMARK  192  A    between atoms: _455  and  _457
REMARK  193  A    between atoms: _457  and  _458
REMARK  194  A    between atoms: _460  and  _462
REMARK  195  A    between atoms: _462  and  _463
REMARK  196  A    between atoms: _462  and  _465
REMARK  197  A    between atoms: _465  and  _466
REMARK  198  A    between atoms: _469  and  _471
REMARK  199  A    between atoms: _471  and  _472
REMARK  200  A    between atoms: _474  and  _476
REMARK  201  A    between atoms: _476  and  _477
REMARK  202  A    between atoms: _479  and  _481
REMARK  203  A    between atoms: _481  and  _482
REMARK  204  A    between atoms: _481  and  _484
REMARK  205  A    between atoms: _484  and  _485
REMARK  206  A    between atoms: _491  and  _493
REMARK  207  A    between atoms: _493  and  _494
REMARK  208  A    between atoms: _493  and  _496
REMARK  209  A    between atoms: _496  and  _497
REMARK  210  A    between atoms: _500  and  _502
REMARK  211  A    between atoms: _502  and  _503
REMARK  212  A    between atoms: _502  and  _505
REMARK  213  A    between atoms: _508  and  _510
REMARK  214  A    between atoms: _510  and  _511
REMARK  215  A    between atoms: _510  and  _513
REMARK  216  A    between atoms: _513  and  _514
REMARK  217  A    between atoms: _517  and  _519
REMARK  218  A    between atoms: _519  and  _520
REMARK  219  A    between atoms: _519  and  _522
REMARK  220  A    between atoms: _522  and  _523
REMARK  221  A    between atoms: _527  and  _528
REMARK  222  A    between atoms: _533  and  _535
REMARK  223  A    between atoms: _535  and  _536
REMARK  224  A    between atoms: _535  and  _538
REMARK  225  A    between atoms: _541  and  _543
REMARK  226  A    between atoms: _543  and  _544
REMARK  227  A    between atoms: _543  and  _546
REMARK  228  A    between atoms: _546  and  _547
REMARK  229  A    between atoms: _552  and  _554
REMARK  230  A    between atoms: _554  and  _555
REMARK  231  A    between atoms: _554  and  _557
REMARK  232  A    between atoms: _557  and  _558
REMARK  233  A    between atoms: _561  and  _563
REMARK  234  A    between atoms: _563  and  _564
REMARK  235  A    between atoms: _563  and  _566
REMARK  236  A    between atoms: _566  and  _567
REMARK  237  A    between atoms: _570  and  _572
REMARK  238  A    between atoms: _572  and  _573
REMARK  239  A    between atoms: _575  and  _577
REMARK  240  A    between atoms: _577  and  _578
REMARK  241  A    between atoms: _577  and  _580
REMARK  242  A    between atoms: _580  and  _581
REMARK  243  A    between atoms: _581  and  _582
REMARK  244  A    between atoms: _582  and  _583
REMARK  245  A    between atoms: _592  and  _594
REMARK  246  A    between atoms: _594  and  _595
REMARK  247  A    between atoms: _594  and  _597
REMARK  248  A    between atoms: _597  and  _598
REMARK                            x       y       z     vdW  Elec       q    Type
REMARK                         _______ _______ _______ _____ _____    ______ ____
ROOT
ATOM      1  NE  ARG A   1       6.976  29.809   0.682  0.00  0.00    -0.265 N 
ATOM      2  HE  ARG A   1       7.217  30.350   1.537  0.00  0.00    +0.259 HD
ATOM      3  CZ  ARG A   1       6.221  28.725   0.826  0.00  0.00    +0.342 C 
ATOM      4  NH2 ARG A   1       5.811  28.359   2.035  0.00  0.00    -0.292 N 
ATOM      5 HH21 ARG A   1       6.081  28.921   2.868  0.00  0.00    +0.255 HD
ATOM      6 HH22 ARG A   1       5.220  27.511   2.149  0.00  0.00    +0.255 HD
ATOM      7  NH1 ARG A   1       5.884  28.003  -0.235  0.00  0.00    -0.292 N 
ATOM      8 HH11 ARG A   1       5.293  27.155  -0.120  0.00  0.00    +0.255 HD
ATOM      9 HH12 ARG A   1       6.211  28.285  -1.181  0.00  0.00    +0.255 HD
ENDROOT
BRANCH   1  10
ATOM     10  CD  ARG A   1       7.489  30.290  -0.595  0.00  0.00    +0.174 C 
BRANCH  10  11
ATOM     11  CG  ARG A   1       8.344  31.530  -0.406  0.00  0.00    +0.045 C 
BRANCH  11  12
ATOM     12  CB  ARG A   1       9.034  31.917  -1.690  0.00  0.00    +0.029 C 
BRANCH  12  13
ATOM     13  CA  ARG A   1       9.992  33.099  -1.533  0.00  0.00    +0.133 C 
BRANCH  13  14
ATOM     14  N   ARG A   1       9.244  34.341  -1.381  0.00  0.00    -0.239 NA
ATOM     15  H   ARG A   1       8.205  34.325  -1.410  0.00  0.00    +0.142 HD
ENDBRANCH  13  14
BRANCH  13  16
ATOM     16  C   ARG A   1      10.916  33.165  -2.742  0.00  0.00    +0.224 C 
ATOM     17  O   ARG A   1      10.521  33.630  -3.809  0.00  0.00    -0.287 OA
ENDBRANCH  13  16
ENDBRANCH  12  13
ENDBRANCH  11  12
ENDBRANCH  10  11
ENDBRANCH   1  10
TORSDOF 6
REMARK  Name = ../refined-set-2016/1d4i/1d4i_pocket.pdb
REMARK  248 active torsions:
REMARK  status: ('A' for Active; 'I' for Inactive)
REMARK    1  A    between atoms: _1  and  _3
REMARK    2  A    between atoms: _3  and  _4
REMARK    3  A    between atoms: _3  and  _6
REMARK    4  A    between atoms: _6  and  _7
REMARK    5  A    between atoms: _7  and  _8
REMARK    6  A    between atoms: _8  and  _9
REMARK    7  A    between atoms: _18  and  _20
REMARK    8  A    between atoms: _20  and  _21
REMARK    9  A    between atoms: _20  and  _23
REMARK   10  A    between atoms: _23  and  _24
REMARK   11  A    between atoms: _27  and  _29
REMARK   12  A    between atoms: _29  and  _30
REMARK   13  A    between atoms: _29  and  _32
REMARK   14  A    between atoms: _32  and  _33
REMARK   15  A    between atoms: _36  and  _38
REMARK   16  A    between atoms: _38  and  _39
REMARK   17  A    between atoms: _38  and  _41
REMARK   18  A    between atoms: _41  and  _42
REMARK   19  A    between atoms: _45  and  _47
REMARK   20  A    between atoms: _47  and  _48
REMARK   21  A    between atoms: _47  and  _50
REMARK   22  A    between atoms: _50  and  _51
REMARK   23  A    between atoms: _54  and  _56
REMARK   24  A    between atoms: _56  and  _57
REMARK   25  A    between atoms: _56  and  _59
REMARK   26  A    between atoms: _59  and  _60
REMARK   27  A    between atoms: _63  and  _65
REMARK   28  A    between atoms: _65  and  _66
REMARK   29  A    between atoms: _68  and  _70
REMARK   30  A    between atoms: _70  and  _71
REMARK   31  A    between atoms: _74  and  _76
REMARK   32  A    between atoms: _76  and  _77
REMARK   33  A    between atoms: _76  and  _79
REMARK   34  A    between atoms: _79  and  _80
REMARK   35  A    between atoms: _83  and  _85
REMARK   36  A    between atoms: _85  and  _86
REMARK   37  A    between atoms: _85  and  _88
REMARK   38  A    between atoms: _88  and  _89
REMARK   39  A    between atoms: _92  and  _94
REMARK   40  A    between atoms: _94  and  _95
REMARK   41  A    between atoms: _94  and  _97
REMARK   42  A    between atoms: _97  and  _98
REMARK   43  A    between atoms: _101  and  _103
REMARK   44  A    between atoms: _103  and  _104
REMARK   45  A    between atoms: _103  and  _106
REMARK   46  A    between atoms: _109  and  _111
REMARK   47  A    between atoms: _111  and  _112
REMARK   48  A    between atoms: _111  and  _114
REMARK   49  A    between atoms: _114  and  _115
REMARK   50  A    between atoms: _118  and  _120
REMARK   51  A    between atoms: _120  and  _121
REMARK   52  A    between atoms: _120  and  _123
REMARK   53  A    between atoms: _123  and  _124
REMARK   54  A    between atoms: _124  and  _125
REMARK   55  A    between atoms: _125  and  _126
REMARK   56  A    between atoms: _126  and  _127
REMARK   57  A    between atoms: _131  and  _133
REMARK   58  A    between atoms: _133  and  _134
REMARK   59  A    between atoms: _133  and  _136
REMARK   60  A    between atoms: _136  and  _137
REMARK   61  A    between atoms: _137  and  _138
REMARK   62  A    between atoms: _140  and  _142
REMARK   63  A    between atoms: _142  and  _143
REMARK   64  A    between atoms: _142  and  _145
REMARK   65  A    between atoms: _145  and  _146
REMARK   66  A    between atoms: _149  and  _151
REMARK   67  A    between atoms: _151  and  _152
REMARK   68  A    between atoms: _154  and  _156
REMARK   69  A    between atoms: _156  and  _157
REMARK   70  A    between atoms: _159  and  _161
REMARK   71  A    between atoms: _161  and  _162
REMARK   72  A    between atoms: _161  and  _164
REMARK   73  A    between atoms: _164  and  _165
REMARK   74  A    between atoms: _168  and  _170
REMARK   75  A    between atoms: _170  and  _171
REMARK   76  A    between atoms: _173  and  _175
REMARK   77  A    between atoms: _175  and  _176
REMARK   78  A    between atoms: _178  and  _180
REMARK   79  A    between atoms: _180  and  _181
REMARK   80  A    between atoms: _180  and  _183
REMARK   81  A    between atoms: _183  and  _184
REMARK   82  A    between atoms: _190  and  _192
REMARK   83  A    between atoms: _192  and  _193
REMARK   84  A    between atoms: _192  and  _195
REMARK   85  A    between atoms: _195  and  _196
REMARK   86  A    between atoms: _199  and  _201
REMARK   87  A    between atoms: _201  and  _202
REMARK   88  A    between atoms: _201  and  _204
REMARK   89  A    between atoms: _207  and  _209
REMARK   90  A    between atoms: _209  and  _210
REMARK   91  A    between atoms: _209  and  _212
REMARK   92  A    between atoms: _212  and  _213
REMARK   93  A    between atoms: _216  and  _218
REMARK   94  A    between atoms: _218  and  _219
REMARK   95  A    between atoms: _218  and  _221
REMARK   96  A    between atoms: _221  and  _222
REMARK   97  A    between atoms: _226  and  _227
REMARK   98  A    between atoms: _232  and  _234
REMARK   99  A    between atoms: _234  and  _235
REMARK  100  A    between atoms: _234  and  _237
REMARK  101  A    between atoms: _240  and  _242
REMARK  102  A    between atoms: _242  and  _243
REMARK  103  A    between atoms: _242  and  _245
REMARK  104  A    between atoms: _245  and  _246
REMARK  105  A    between atoms: _251  and  _253
REMARK  106  A    between atoms: _253  and  _254
REMARK  107  A    between atoms: _253  and  _256
REMARK  108  A    between atoms: _256  and  _257
REMARK  109  A    between atoms: _260  and  _262
REMARK  110  A    between atoms: _262  and  _263
REMARK  111  A    between atoms: _262  and  _265
REMARK  112  A    between atoms: _265  and  _266
REMARK  113  A    between atoms: _269  and  _271
REMARK  114  A    between atoms: _271  and  _272
REMARK  115  A    between atoms: _274  and  _276
REMARK  116  A    between atoms: _276  and  _277
REMARK  117  A    between atoms: _276  and  _279
REMARK  118  A    between atoms: _279  and  _280
REMARK  119  A    between atoms: _280  and  _281
REMARK  120  A    between atoms: _281  and  _282
REMARK  121  A    between atoms: _291  and  _293
REMARK  122  A    between atoms: _293  and  _294
REMARK  123  A    between atoms: _293  and  _296
REMARK  124  A    between atoms: _296  and  _297
REMARK  125  A    between atoms: _302  and  _304
REMARK  126  A    between atoms: _304  and  _305
REMARK  127  A    between atoms: _304  and  _307
REMARK  128  A    between atoms: _307  and  _308
REMARK  129  A    between atoms: _308  and  _309
REMARK  130  A    between atoms: _309  and  _310
REMARK  131  A    between atoms: _319  and  _321
REMARK  132  A    between atoms: _321  and  _322
REMARK  133  A    between atoms: _321  and  _324
REMARK  134  A    between atoms: _324  and  _325
REMARK  135  A    between atoms: _328  and  _330
REMARK  136  A    between atoms: _330  and  _331
REMARK  137  A    between atoms: _330  and  _333
REMARK  138  A    between atoms: _333  and  _334
REMARK  139  A    between atoms: _337  and  _339
REMARK  140  A    between atoms: _339  and  _340
REMARK  141  A    between atoms: _339  and  _342
REMARK  142  A    between atoms: _342  and  _343
REMARK  143  A    between atoms: _346  and  _348
REMARK  144  A    between atoms: _348  and  _349
REMARK  145  A    between atoms: _348  and  _351
REMARK  146  A    between atoms: _351  and  _352
REMARK  147  A    between atoms: _355  and  _357
REMARK  148  A    between atoms: _357  and  _358
REMARK  149  A    between atoms: _357  and  _360
REMARK  150  A    between atoms: _360  and  _361
REMARK  151  A    between atoms: _364  and  _366
REMARK  152  A    between atoms: _366  and  _367
REMARK  153  A    between atoms: _369  and  _371
REMARK  154  A    between atoms: _371  and  _372
REMARK  155  A    between atoms: _375  and  _377
REMARK  156  A    between atoms: _377  and  _378
REMARK  157  A    between atoms: _377  and  _380
REMARK  158  A    between atoms: _380  and  _381
REMARK  159  A    between atoms: _384  and  _386
REMARK  160  A    between atoms: _386  and  _387
REMARK  161  A    between atoms: _386  and  _389
REMARK  162  A    between atoms: _389  and  _390
REMARK  163  A    between atoms: _393  and  _395
REMARK  164  A    between atoms: _395  and  _396
REMARK  165  A    between atoms: _395  and  _398
REMARK  166  A    between atoms: _398  and  _399
REMARK  167  A    between atoms: _402  and  _404
REMARK  168  A    between atoms: _404  and  _405
REMARK  169  A    between atoms: _404  and  _407
REMARK  170  A    between atoms: _410  and  _412
REMARK  171  A    between atoms: _412  and  _413
REMARK  172  A    between atoms: _412  and  _415
REMARK  173  A    between atoms: _415  and  _416
REMARK  174  A    between atoms: _419  and  _421
REMARK  175  A    between atoms: _421  and  _422
REMARK  176  A    between atoms: _421  and  _424
REMARK  177  A    between atoms: _424  and  _425
REMARK  178  A    between atoms: _425  and  _426
REMARK  179  A    between atoms: _426  and  _427
REMARK  180  A    between atoms: _427  and  _428
REMARK  181  A    between atoms: _432  and  _434
REMARK  182  A    between atoms: _434  and  _435
REMARK  183  A    between atoms: _434  and  _437
REMARK  184  A    between atoms: _437  and  _438
REMARK  185  A    between atoms: _438  and  _439
REMARK  186  A    between atoms: _441  and  _443
REMARK  187  A    between atoms: _443  and  _444
REMARK  188  A    between atoms: _443  and  _446
REMARK  189  A    between atoms: _446  and  _447
REMARK  190  A    between atoms: _450  and  _452
REMARK  191  A    between atoms: _452  and  _453
REMARK  192  A    between atoms: _455  and  _457
REMARK  193  A    between atoms: _457  and  _458
REMARK  194  A    between atoms: _460  and  _462
REMARK  195  A    between atoms: _462  and  _463
REMARK  196  A    between atoms: _462  and  _465
REMARK  197  A    between atoms: _465  and  _466
REMARK  198  A    between atoms: _469  and  _471
REMARK  199  A    between atoms: _471  and  _472
REMARK  200  A    between atoms: _474  and  _476
REMARK  201  A    between atoms: _476  and  _477
REMARK  202  A    between atoms: _479  and  _481
REMARK  203  A    between atoms: _481  and  _482
REMARK  204  A    between atoms: _481  and  _484
REMARK  205  A    between atoms: _484  and  _485
REMARK  206  A    between atoms: _491  and  _493
REMARK  207  A    between atoms: _493  and  _494
REMARK  208  A    between atoms: _493  and  _496
REMARK  209  A    between atoms: _496  and  _497
REMARK  210  A    between atoms: _500  and  _502
REMARK  211  A    between atoms: _502  and  _503
REMARK  212  A    between atoms: _502  and  _505
REMARK  213  A    between atoms: _508  and  _510
REMARK  214  A    between atoms: _510  and  _511
REMARK  215  A    between atoms: _510  and  _513
REMARK  216  A    between atoms: _513  and  _514
REMARK  217  A    between atoms: _517  and  _519
REMARK  218  A    between atoms: _519  and  _520
REMARK  219  A    between atoms: _519  and  _522
REMARK  220  A    between atoms: _522  and  _523
REMARK  221  A    between atoms: _527  and  _528
REMARK  222  A    between atoms: _533  and  _535
REMARK  223  A    between atoms: _535  and  _536
REMARK  224  A    between atoms: _535  and  _538
REMARK  225  A    between atoms: _541  and  _543
REMARK  226  A    between atoms: _543  and  _544
REMARK  227  A    between atoms: _543  and  _546
REMARK  228  A    between atoms: _546  and  _547
REMARK  229  A    between atoms: _552  and  _554
REMARK  230  A    between atoms: _554  and  _555
REMARK  231  A    between atoms: _554  and  _557
REMARK  232  A    between atoms: _557  and  _558
REMARK  233  A    between atoms: _561  and  _563
REMARK  234  A    between atoms: _563  and  _564
REMARK  235  A    between atoms: _563  and  _566
REMARK  236  A    between atoms: _566  and  _567
REMARK  237  A    between atoms: _570  and  _572
REMARK  238  A    between atoms: _572  and  _573
REMARK  239  A    between atoms: _575  and  _577
REMARK  240  A    between atoms: _577  and  _578
REMARK  241  A    between atoms: _577  and  _580
REMARK  242  A    between atoms: _580  and  _581
REMARK  243  A    between atoms: _581  and  _582
REMARK  244  A    between atoms: _582  and  _583
REMARK  245  A    between atoms: _592  and  _594
REMARK  246  A    between atoms: _594  and  _595
REMARK  247  A    between atoms: _594  and  _597
REMARK  248  A    between atoms: _597  and  _598
REMARK                            x       y       z     vdW  Elec       q    Type
REMARK                         _______ _______ _______ _____ _____    ______ ____
ROOT
ATOM      1  CA  LEU A   1      11.361  30.770  -6.423  0.00  0.00    +0.133 C 
ENDROOT
BRANCH   1   2
ATOM      2  N   LEU A   1      11.765  31.763  -5.445  0.00  0.00    -0.239 NA
ATOM      3  H   LEU A   1      11.202  32.631  -5.345  0.00  0.00    +0.142 HD
ENDBRANCH   1   2
BRANCH   1   4
ATOM      4  C   LEU A   1      11.986  31.086  -7.769  0.00  0.00    +0.224 C 
ATOM      5  O   LEU A   1      12.032  32.244  -8.188  0.00  0.00    -0.287 OA
ENDBRANCH   1   4
BRANCH   1   6
ATOM      6  CB  LEU A   1       9.836  30.752  -6.554  0.00  0.00    +0.025 C 
BRANCH   6   7
ATOM      7  CG  LEU A   1       9.049  30.308  -5.322  0.00  0.00    +0.002 C 
ATOM      8  CD2 LEU A   1       9.408  28.869  -4.976  0.00  0.00    +0.000 C 
ATOM      9  CD1 LEU A   1       7.554  30.437  -5.594  0.00  0.00    +0.000 C 
ENDBRANCH   6   7
ENDBRANCH   1   6
TORSDOF 4
REMARK  Name = ../refined-set-2016/1d4i/1d4i_pocket.pdb
REMARK  248 active torsions:
REMARK  status: ('A' for Active; 'I' for Inactive)
REMARK    1  A    between atoms: _1  and  _3
REMARK    2  A    between atoms: _3  and  _4
REMARK    3  A    between atoms: _3  and  _6
REMARK    4  A    between atoms: _6  and  _7
REMARK    5  A    between atoms: _7  and  _8
REMARK    6  A    between atoms: _8  and  _9
REMARK    7  A    between atoms: _18  and  _20
REMARK    8  A    between atoms: _20  and  _21
REMARK    9  A    between atoms: _20  and  _23
REMARK   10  A    between atoms: _23  and  _24
REMARK   11  A    between atoms: _27  and  _29
REMARK   12  A    between atoms: _29  and  _30
REMARK   13  A    between atoms: _29  and  _32
REMARK   14  A    between atoms: _32  and  _33
REMARK   15  A    between atoms: _36  and  _38
REMARK   16  A    between atoms: _38  and  _39
REMARK   17  A    between atoms: _38  and  _41
REMARK   18  A    between atoms: _41  and  _42
REMARK   19  A    between atoms: _45  and  _47
REMARK   20  A    between atoms: _47  and  _48
REMARK   21  A    between atoms: _47  and  _50
REMARK   22  A    between atoms: _50  and  _51
REMARK   23  A    between atoms: _54  and  _56
REMARK   24  A    between atoms: _56  and  _57
REMARK   25  A    between atoms: _56  and  _59
REMARK   26  A    between atoms: _59  and  _60
REMARK   27  A    between atoms: _63  and  _65
REMARK   28  A    between atoms: _65  and  _66
REMARK   29  A    between atoms: _68  and  _70
REMARK   30  A    between atoms: _70  and  _71
REMARK   31  A    between atoms: _74  and  _76
REMARK   32  A    between atoms: _76  and  _77
REMARK   33  A    between atoms: _76  and  _79
REMARK   34  A    between atoms: _79  and  _80
REMARK   35  A    between atoms: _83  and  _85
REMARK   36  A    between atoms: _85  and  _86
REMARK   37  A    between atoms: _85  and  _88
REMARK   38  A    between atoms: _88  and  _89
REMARK   39  A    between atoms: _92  and  _94
REMARK   40  A    between atoms: _94  and  _95
REMARK   41  A    between atoms: _94  and  _97
REMARK   42  A    between atoms: _97  and  _98
REMARK   43  A    between atoms: _101  and  _103
REMARK   44  A    between atoms: _103  and  _104
REMARK   45  A    between atoms: _103  and  _106
REMARK   46  A    between atoms: _109  and  _111
REMARK   47  A    between atoms: _111  and  _112
REMARK   48  A    between atoms: _111  and  _114
REMARK   49  A    between atoms: _114  and  _115
REMARK   50  A    between atoms: _118  and  _120
REMARK   51  A    between atoms: _120  and  _121
REMARK   52  A    between atoms: _120  and  _123
REMARK   53  A    between atoms: _123  and  _124
REMARK   54  A    between atoms: _124  and  _125
REMARK   55  A    between atoms: _125  and  _126
REMARK   56  A    between atoms: _126  and  _127
REMARK   57  A    between atoms: _131  and  _133
REMARK   58  A    between atoms: _133  and  _134
REMARK   59  A    between atoms: _133  and  _136
REMARK   60  A    between atoms: _136  and  _137
REMARK   61  A    between atoms: _137  and  _138
REMARK   62  A    between atoms: _140  and  _142
REMARK   63  A    between atoms: _142  and  _143
REMARK   64  A    between atoms: _142  and  _145
REMARK   65  A    between atoms: _145  and  _146
REMARK   66  A    between atoms: _149  and  _151
REMARK   67  A    between atoms: _151  and  _152
REMARK   68  A    between atoms: _154  and  _156
REMARK   69  A    between atoms: _156  and  _157
REMARK   70  A    between atoms: _159  and  _161
REMARK   71  A    between atoms: _161  and  _162
REMARK   72  A    between atoms: _161  and  _164
REMARK   73  A    between atoms: _164  and  _165
REMARK   74  A    between atoms: _168  and  _170
REMARK   75  A    between atoms: _170  and  _171
REMARK   76  A    between atoms: _173  and  _175
REMARK   77  A    between atoms: _175  and  _176
REMARK   78  A    between atoms: _178  and  _180
REMARK   79  A    between atoms: _180  and  _181
REMARK   80  A    between atoms: _180  and  _183
REMARK   81  A    between atoms: _183  and  _184
REMARK   82  A    between atoms: _190  and  _192
REMARK   83  A    between atoms: _192  and  _193
REMARK   84  A    between atoms: _192  and  _195
REMARK   85  A    between atoms: _195  and  _196
REMARK   86  A    between atoms: _199  and  _201
REMARK   87  A    between atoms: _201  and  _202
REMARK   88  A    between atoms: _201  and  _204
REMARK   89  A    between atoms: _207  and  _209
REMARK   90  A    between atoms: _209  and  _210
REMARK   91  A    between atoms: _209  and  _212
REMARK   92  A    between atoms: _212  and  _213
REMARK   93  A    between atoms: _216  and  _218
REMARK   94  A    between atoms: _218  and  _219
REMARK   95  A    between atoms: _218  and  _221
REMARK   96  A    between atoms: _221  and  _222
REMARK   97  A    between atoms: _226  and  _227
REMARK   98  A    between atoms: _232  and  _234
REMARK   99  A    between atoms: _234  and  _235
REMARK  100  A    between atoms: _234  and  _237
REMARK  101  A    between atoms: _240  and  _242
REMARK  102  A    between atoms: _242  and  _243
REMARK  103  A    between atoms: _242  and  _245
REMARK  104  A    between atoms: _245  and  _246
REMARK  105  A    between atoms: _251  and  _253
REMARK  106  A    between atoms: _253  and  _254
REMARK  107  A    between atoms: _253  and  _256
REMARK  108  A    between atoms: _256  and  _257
REMARK  109  A    between atoms: _260  and  _262
REMARK  110  A    between atoms: _262  and  _263
REMARK  111  A    between atoms: _262  and  _265
REMARK  112  A    between atoms: _265  and  _266
REMARK  113  A    between atoms: _269  and  _271
REMARK  114  A    between atoms: _271  and  _272
REMARK  115  A    between atoms: _274  and  _276
REMARK  116  A    between atoms: _276  and  _277
REMARK  117  A    between atoms: _276  and  _279
REMARK  118  A    between atoms: _279  and  _280
REMARK  119  A    between atoms: _280  and  _281
REMARK  120  A    between atoms: _281  and  _282
REMARK  121  A    between atoms: _291  and  _293
REMARK  122  A    between atoms: _293  and  _294
REMARK  123  A    between atoms: _293  and  _296
REMARK  124  A    between atoms: _296  and  _297
REMARK  125  A    between atoms: _302  and  _304
REMARK  126  A    between atoms: _304  and  _305
REMARK  127  A    between atoms: _304  and  _307
REMARK  128  A    between atoms: _307  and  _308
REMARK  129  A    between atoms: _308  and  _309
REMARK  130  A    between atoms: _309  and  _310
REMARK  131  A    between atoms: _319  and  _321
REMARK  132  A    between atoms: _321  and  _322
REMARK  133  A    between atoms: _321  and  _324
REMARK  134  A    between atoms: _324  and  _325
REMARK  135  A    between atoms: _328  and  _330
REMARK  136  A    between atoms: _330  and  _331
REMARK  137  A    between atoms: _330  and  _333
REMARK  138  A    between atoms: _333  and  _334
REMARK  139  A    between atoms: _337  and  _339
REMARK  140  A    between atoms: _339  and  _340
REMARK  141  A    between atoms: _339  and  _342
REMARK  142  A    between atoms: _342  and  _343
REMARK  143  A    between atoms: _346  and  _348
REMARK  144  A    between atoms: _348  and  _349
REMARK  145  A    between atoms: _348  and  _351
REMARK  146  A    between atoms: _351  and  _352
REMARK  147  A    between atoms: _355  and  _357
REMARK  148  A    between atoms: _357  and  _358
REMARK  149  A    between atoms: _357  and  _360
REMARK  150  A    between atoms: _360  and  _361
REMARK  151  A    between atoms: _364  and  _366
REMARK  152  A    between atoms: _366  and  _367
REMARK  153  A    between atoms: _369  and  _371
REMARK  154  A    between atoms: _371  and  _372
REMARK  155  A    between atoms: _375  and  _377
REMARK  156  A    between atoms: _377  and  _378
REMARK  157  A    between atoms: _377  and  _380
REMARK  158  A    between atoms: _380  and  _381
REMARK  159  A    between atoms: _384  and  _386
REMARK  160  A    between atoms: _386  and  _387
REMARK  161  A    between atoms: _386  and  _389
REMARK  162  A    between atoms: _389  and  _390
REMARK  163  A    between atoms: _393  and  _395
REMARK  164  A    between atoms: _395  and  _396
REMARK  165  A    between atoms: _395  and  _398
REMARK  166  A    between atoms: _398  and  _399
REMARK  167  A    between atoms: _402  and  _404
REMARK  168  A    between atoms: _404  and  _405
REMARK  169  A    between atoms: _404  and  _407
REMARK  170  A    between atoms: _410  and  _412
REMARK  171  A    between atoms: _412  and  _413
REMARK  172  A    between atoms: _412  and  _415
REMARK  173  A    between atoms: _415  and  _416
REMARK  174  A    between atoms: _419  and  _421
REMARK  175  A    between atoms: _421  and  _422
REMARK  176  A    between atoms: _421  and  _424
REMARK  177  A    between atoms: _424  and  _425
REMARK  178  A    between atoms: _425  and  _426
REMARK  179  A    between atoms: _426  and  _427
REMARK  180  A    between atoms: _427  and  _428
REMARK  181  A    between atoms: _432  and  _434
REMARK  182  A    between atoms: _434  and  _435
REMARK  183  A    between atoms: _434  and  _437
REMARK  184  A    between atoms: _437  and  _438
REMARK  185  A    between atoms: _438  and  _439
REMARK  186  A    between atoms: _441  and  _443
REMARK  187  A    between atoms: _443  and  _444
REMARK  188  A    between atoms: _443  and  _446
REMARK  189  A    between atoms: _446  and  _447
REMARK  190  A    between atoms: _450  and  _452
REMARK  191  A    between atoms: _452  and  _453
REMARK  192  A    between atoms: _455  and  _457
REMARK  193  A    between atoms: _457  and  _458
REMARK  194  A    between atoms: _460  and  _462
REMARK  195  A    between atoms: _462  and  _463
REMARK  196  A    between atoms: _462  and  _465
REMARK  197  A    between atoms: _465  and  _466
REMARK  198  A    between atoms: _469  and  _471
REMARK  199  A    between atoms: _471  and  _472
REMARK  200  A    between atoms: _474  and  _476
REMARK  201  A    between atoms: _476  and  _477
REMARK  202  A    between atoms: _479  and  _481
REMARK  203  A    between atoms: _481  and  _482
REMARK  204  A    between atoms: _481  and  _484
REMARK  205  A    between atoms: _484  and  _485
REMARK  206  A    between atoms: _491  and  _493
REMARK  207  A    between atoms: _493  and  _494
REMARK  208  A    between atoms: _493  and  _496
REMARK  209  A    between atoms: _496  and  _497
REMARK  210  A    between atoms: _500  and  _502
REMARK  211  A    between atoms: _502  and  _503
REMARK  212  A    between atoms: _502  and  _505
REMARK  213  A    between atoms: _508  and  _510
REMARK  214  A    between atoms: _510  and  _511
REMARK  215  A    between atoms: _510  and  _513
REMARK  216  A    between atoms: _513  and  _514
REMARK  217  A    between atoms: _517  and  _519
REMARK  218  A    between atoms: _519  and  _520
REMARK  219  A    between atoms: _519  and  _522
REMARK  220  A    between atoms: _522  and  _523
REMARK  221  A    between atoms: _527  and  _528
REMARK  222  A    between atoms: _533  and  _535
REMARK  223  A    between atoms: _535  and  _536
REMARK  224  A    between atoms: _535  and  _538
REMARK  225  A    between atoms: _541  and  _543
REMARK  226  A    between atoms: _543  and  _544
REMARK  227  A    between atoms: _543  and  _546
REMARK  228  A    between atoms: _546  and  _547
REMARK  229  A    between atoms: _552  and  _554
REMARK  230  A    between atoms: _554  and  _555
REMARK  231  A    between atoms: _554  and  _557
REMARK  232  A    between atoms: _557  and  _558
REMARK  233  A    between atoms: _561  and  _563
REMARK  234  A    between atoms: _563  and  _564
REMARK  235  A    between atoms: _563  and  _566
REMARK  236  A    between atoms: _566  and  _567
REMARK  237  A    between atoms: _570  and  _572
REMARK  238  A    between atoms: _572  and  _573
REMARK  239  A    between atoms: _575  and  _577
REMARK  240  A    between atoms: _577  and  _578
REMARK  241  A    between atoms: _577  and  _580
REMARK  242  A    between atoms: _580  and  _581
REMARK  243  A    between atoms: _581  and  _582
REMARK  244  A    between atoms: _582  and  _583
REMARK  245  A    between atoms: _592  and  _594
REMARK  246  A    between atoms: _594  and  _595
REMARK  247  A    between atoms: _594  and  _597
REMARK  248  A    between atoms: _597  and  _598
REMARK                            x       y       z     vdW  Elec       q    Type
REMARK                         _______ _______ _______ _____ _____    ______ ____
ROOT
ATOM      1  C   ALA A   6      19.784  21.681   2.099  0.00  0.00    +0.241 C 
ATOM      2  N   ASP A   7      20.226  20.575   2.689  0.00  0.00    -0.297 N 
ATOM      3  H   ASP A   7      19.640  20.105   3.408  0.00  0.00    +0.150 HD
ATOM      4  O   ALA A   6      20.442  22.284   1.255  0.00  0.00    -0.273 OA
ENDROOT
BRANCH   1   5
ATOM      5  CA  ALA A   6      18.409  22.193   2.517  0.00  0.00    +0.149 C 
ATOM      6  CB  ALA A   6      17.439  22.093   1.344  0.00  0.00    +0.031 C 
BRANCH   5   9
ATOM      7  C   GLY A   5      18.476  23.877   4.271  0.00  0.00    +0.243 C 
ATOM      8  O   GLY A   5      18.403  23.018   5.153  0.00  0.00    -0.273 OA
ATOM      9  N   ALA A   6      18.489  23.574   2.977  0.00  0.00    -0.297 N 
ATOM     10  H   ALA A   6      18.558  24.340   2.277  0.00  0.00    +0.150 HD
BRANCH   7  11
ATOM     11  CA  GLY A   5      18.559  25.353   4.631  0.00  0.00    +0.176 C 
BRANCH  11  14
ATOM     12  C   THR A   4      19.997  26.458   3.033  0.00  0.00    +0.243 C 
ATOM     13  O   THR A   4      21.001  25.967   3.548  0.00  0.00    -0.273 OA
ATOM     14  N   GLY A   5      18.769  26.221   3.483  0.00  0.00    -0.295 N 
ATOM     15  H   GLY A   5      17.953  26.659   3.011  0.00  0.00    +0.150 HD
BRANCH  12  16
ATOM     16  CA  THR A   4      20.113  27.378   1.814  0.00  0.00    +0.176 C 
BRANCH  16  18
ATOM     17  C   ASP A   3      18.288  26.521   0.472  0.00  0.00    +0.241 C 
ATOM     18  N   THR A   4      18.826  27.531   1.151  0.00  0.00    -0.295 N 
ATOM     19  H   THR A   4      18.322  28.439   1.209  0.00  0.00    +0.150 HD
ATOM     20  O   ASP A   3      18.831  25.423   0.377  0.00  0.00    -0.273 OA
BRANCH  17  21
ATOM     21  CA  ASP A   3      16.931  26.769  -0.182  0.00  0.00    +0.160 C 
BRANCH  21  24
ATOM     22  C   LEU A   2      16.542  28.136  -2.163  0.00  0.00    +0.241 C 
ATOM     23  O   LEU A   2      16.217  29.118  -1.496  0.00  0.00    -0.273 OA
ATOM     24  N   ASP A   3      16.954  26.997  -1.622  0.00  0.00    -0.297 N 
ATOM     25  H   ASP A   3      17.305  26.242  -2.245  0.00  0.00    +0.150 HD
BRANCH  22  26
ATOM     26  CA  LEU A   2      16.505  28.176  -3.689  0.00  0.00    +0.149 C 
BRANCH  26  29
ATOM     27  C   LEU A   1      14.376  27.036  -3.948  0.00  0.00    +0.238 C 
ATOM     28  O   LEU A   1      14.911  25.942  -3.825  0.00  0.00    -0.274 OA
ATOM     29  N   LEU A   2      15.062  28.176  -3.940  0.00  0.00    -0.297 N 
ATOM     30  H   LEU A   2      14.569  29.075  -4.114  0.00  0.00    +0.150 HD
BRANCH  27  31
ATOM     31  CA  LEU A   1      12.866  27.124  -4.131  0.00  0.00    +0.145 C 
BRANCH  31  32
ATOM     32  N   LEU A   1      12.407  26.202  -5.157  0.00  0.00    -0.238 NA
ATOM     33  H   LEU A   1      12.231  25.212  -4.892  0.00  0.00    +0.142 HD
ENDBRANCH  31  32
BRANCH  31  34
ATOM     34  CB  LEU A   1      12.204  26.750  -2.803  0.00  0.00    +0.026 C 
BRANCH  34  35
ATOM     35  CG  LEU A   1      11.390  27.709  -1.938  0.00  0.00    +0.002 C 
ATOM     36  CD2 LEU A   1      11.114  27.008  -0.609  0.00  0.00    +0.000 C 
ATOM     37  CD1 LEU A   1      12.133  29.003  -1.699  0.00  0.00    +0.000 C 
ENDBRANCH  34  35
ENDBRANCH  31  34
ENDBRANCH  27  31
ENDBRANCH  26  29
BRANCH  26  38
ATOM     38  CB  LEU A   2      17.151  29.454  -4.219  0.00  0.00    +0.029 C 
BRANCH  38  39
ATOM     39  CG  LEU A   2      17.067  29.628  -5.738  0.00  0.00    +0.002 C 
ATOM     40  CD2 LEU A   2      17.747  30.923  -6.130  0.00  0.00    +0.000 C 
ATOM     41  CD1 LEU A   2      17.717  28.441  -6.445  0.00  0.00    +0.000 C 
ENDBRANCH  38  39
ENDBRANCH  26  38
ENDBRANCH  22  26
ENDBRANCH  21  24
BRANCH  21  42
ATOM     42  CB  ASP A   3      16.016  25.571   0.063  0.00  0.00    +0.143 C 
BRANCH  42  43
ATOM     43  CG  ASP A   3      15.647  25.393   1.514  0.00  0.00    +0.367 C 
ATOM     44  OD2 ASP A   3      16.248  26.054   2.384  0.00  0.00    -0.246 OA
ATOM     45  OD1 ASP A   3      14.747  24.577   1.771  0.00  0.00    -0.246 OA
ENDBRANCH  42  43
ENDBRANCH  21  42
ENDBRANCH  17  21
ENDBRANCH  16  18
BRANCH  16  46
ATOM     46  CB  THR A   4      20.672  28.735   2.262  0.00  0.00    +0.137 C 
ATOM     47  CG2 THR A   4      20.890  29.634   1.058  0.00  0.00    +0.034 C 
BRANCH  46  48
ATOM     48  OG1 THR A   4      19.745  29.361   3.155  0.00  0.00    -0.382 OA
ATOM     49  HG1 THR A   4      19.609  28.782   3.946  0.00  0.00    +0.210 HD
ENDBRANCH  46  48
ENDBRANCH  16  46
ENDBRANCH  12  16
ENDBRANCH  11  14
ENDBRANCH   7  11
ENDBRANCH   5   9
ENDBRANCH   1   5
BRANCH   2  50
ATOM     50  CA  ASP A   7      21.529  20.014   2.336  0.00  0.00    +0.160 C 
BRANCH  50  51
ATOM     51  C   ASP A   7      21.521  19.476   0.912  0.00  0.00    +0.241 C 
ATOM     52  N   ASP A   8      20.402  18.864   0.542  0.00  0.00    -0.297 N 
ATOM     53  H   ASP A   8      19.608  18.819   1.212  0.00  0.00    +0.150 HD
ATOM     54  O   ASP A   7      22.506  19.593   0.182  0.00  0.00    -0.273 OA
BRANCH  52  55
ATOM     55  CA  ASP A   8      20.251  18.255  -0.769  0.00  0.00    +0.160 C 
BRANCH  55  56
ATOM     56  C   ASP A   8      19.114  18.875  -1.562  0.00  0.00    +0.241 C 
ATOM     57  O   ASP A   8      18.407  19.755  -1.079  0.00  0.00    -0.273 OA
ATOM     58  N   THR A   9      18.939  18.382  -2.782  0.00  0.00    -0.295 N 
ATOM     59  H   THR A   9      19.570  17.621  -3.106  0.00  0.00    +0.150 HD
BRANCH  58  60
ATOM     60  CA  THR A   9      17.904  18.859  -3.684  0.00  0.00    +0.176 C 
BRANCH  60  61
ATOM     61  C   THR A   9      16.835  17.778  -3.807  0.00  0.00    +0.243 C 
ATOM     62  N   VAL A  10      15.586  18.148  -3.553  0.00  0.00    -0.297 N 
ATOM     63  H   VAL A  10      15.381  19.134  -3.292  0.00  0.00    +0.150 HD
ATOM     64  O   THR A   9      17.136  16.624  -4.111  0.00  0.00    -0.273 OA
BRANCH  62  65
ATOM     65  CA  VAL A  10      14.503  17.183  -3.638  0.00  0.00    +0.149 C 
BRANCH  65  66
ATOM     66  C   VAL A  10      13.359  17.758  -4.447  0.00  0.00    +0.241 C 
ATOM     67  O   VAL A  10      12.929  18.891  -4.229  0.00  0.00    -0.273 OA
ATOM     68  N   LEU A  11      12.879  16.965  -5.396  0.00  0.00    -0.298 N 
ATOM     69  H   LEU A  11      13.287  16.016  -5.514  0.00  0.00    +0.150 HD
BRANCH  68  70
ATOM     70  CA  LEU A  11      11.803  17.382  -6.274  0.00  0.00    +0.137 C 
BRANCH  70  71
ATOM     71  C   LEU A  11      10.579  16.513  -6.093  0.00  0.00    +0.227 C 
ATOM     72  O   LEU A  11      10.672  15.364  -5.666  0.00  0.00    -0.286 OA
ENDBRANCH  70  71
BRANCH  70  73
ATOM     73  CB  LEU A  11      12.259  17.304  -7.731  0.00  0.00    +0.028 C 
BRANCH  73  74
ATOM     74  CG  LEU A  11      13.491  18.128  -8.106  0.00  0.00    +0.002 C 
ATOM     75  CD2 LEU A  11      13.240  19.585  -7.793  0.00  0.00    +0.000 C 
ATOM     76  CD1 LEU A  11      13.798  17.944  -9.588  0.00  0.00    +0.000 C 
ENDBRANCH  73  74
ENDBRANCH  70  73
ENDBRANCH  68  70
ENDBRANCH  65  66
BRANCH  65  77
ATOM     77  CB  VAL A  10      14.013  16.757  -2.225  0.00  0.00    +0.027 C 
ATOM     78  CG2 VAL A  10      13.482  17.946  -1.466  0.00  0.00    +0.002 C 
ATOM     79  CG1 VAL A  10      12.938  15.678  -2.355  0.00  0.00    +0.002 C 
ENDBRANCH  65  77
ENDBRANCH  62  65
ENDBRANCH  60  61
BRANCH  60  80
ATOM     80  CB  THR A   9      18.506  19.158  -5.068  0.00  0.00    +0.137 C 
ATOM     81  CG2 THR A   9      17.416  19.514  -6.084  0.00  0.00    +0.034 C 
BRANCH  80  82
ATOM     82  OG1 THR A   9      19.418  20.256  -4.950  0.00  0.00    -0.382 OA
ATOM     83  HG1 THR A   9      20.139  20.018  -4.315  0.00  0.00    +0.210 HD
ENDBRANCH  80  82
ENDBRANCH  60  80
ENDBRANCH  58  60
ENDBRANCH  55  56
BRANCH  55  84
ATOM     84  CB  ASP A   8      19.989  16.754  -0.608  0.00  0.00    +0.143 C 
BRANCH  84  85
ATOM     85  CG  ASP A   8      20.979  16.082   0.332  0.00  0.00    +0.367 C 
ATOM     86  OD2 ASP A   8      20.541  15.492   1.348  0.00  0.00    -0.246 OA
ATOM     87  OD1 ASP A   8      22.190  16.140   0.055  0.00  0.00    -0.246 OA
ENDBRANCH  84  85
ENDBRANCH  55  84
ENDBRANCH  52  55
ENDBRANCH  50  51
BRANCH  50  88
ATOM     88  CB  ASP A   7      21.904  18.846   3.247  0.00  0.00    +0.143 C 
BRANCH  88  89
ATOM     89  CG  ASP A   7      22.069  19.249   4.687  0.00  0.00    +0.367 C 
ATOM     90  OD2 ASP A   7      21.791  18.402   5.556  0.00  0.00    -0.246 OA
ATOM     91  OD1 ASP A   7      22.493  20.390   4.950  0.00  0.00    -0.246 OA
ENDBRANCH  88  89
ENDBRANCH  50  88
ENDBRANCH   2  50
TORSDOF 39
REMARK  Name = ../refined-set-2016/1d4i/1d4i_pocket.pdb
REMARK  248 active torsions:
REMARK  status: ('A' for Active; 'I' for Inactive)
REMARK    1  A    between atoms: _1  and  _3
REMARK    2  A    between atoms: _3  and  _4
REMARK    3  A    between atoms: _3  and  _6
REMARK    4  A    between atoms: _6  and  _7
REMARK    5  A    between atoms: _7  and  _8
REMARK    6  A    between atoms: _8  and  _9
REMARK    7  A    between atoms: _18  and  _20
REMARK    8  A    between atoms: _20  and  _21
REMARK    9  A    between atoms: _20  and  _23
REMARK   10  A    between atoms: _23  and  _24
REMARK   11  A    between atoms: _27  and  _29
REMARK   12  A    between atoms: _29  and  _30
REMARK   13  A    between atoms: _29  and  _32
REMARK   14  A    between atoms: _32  and  _33
REMARK   15  A    between atoms: _36  and  _38
REMARK   16  A    between atoms: _38  and  _39
REMARK   17  A    between atoms: _38  and  _41
REMARK   18  A    between atoms: _41  and  _42
REMARK   19  A    between atoms: _45  and  _47
REMARK   20  A    between atoms: _47  and  _48
REMARK   21  A    between atoms: _47  and  _50
REMARK   22  A    between atoms: _50  and  _51
REMARK   23  A    between atoms: _54  and  _56
REMARK   24  A    between atoms: _56  and  _57
REMARK   25  A    between atoms: _56  and  _59
REMARK   26  A    between atoms: _59  and  _60
REMARK   27  A    between atoms: _63  and  _65
REMARK   28  A    between atoms: _65  and  _66
REMARK   29  A    between atoms: _68  and  _70
REMARK   30  A    between atoms: _70  and  _71
REMARK   31  A    between atoms: _74  and  _76
REMARK   32  A    between atoms: _76  and  _77
REMARK   33  A    between atoms: _76  and  _79
REMARK   34  A    between atoms: _79  and  _80
REMARK   35  A    between atoms: _83  and  _85
REMARK   36  A    between atoms: _85  and  _86
REMARK   37  A    between atoms: _85  and  _88
REMARK   38  A    between atoms: _88  and  _89
REMARK   39  A    between atoms: _92  and  _94
REMARK   40  A    between atoms: _94  and  _95
REMARK   41  A    between atoms: _94  and  _97
REMARK   42  A    between atoms: _97  and  _98
REMARK   43  A    between atoms: _101  and  _103
REMARK   44  A    between atoms: _103  and  _104
REMARK   45  A    between atoms: _103  and  _106
REMARK   46  A    between atoms: _109  and  _111
REMARK   47  A    between atoms: _111  and  _112
REMARK   48  A    between atoms: _111  and  _114
REMARK   49  A    between atoms: _114  and  _115
REMARK   50  A    between atoms: _118  and  _120
REMARK   51  A    between atoms: _120  and  _121
REMARK   52  A    between atoms: _120  and  _123
REMARK   53  A    between atoms: _123  and  _124
REMARK   54  A    between atoms: _124  and  _125
REMARK   55  A    between atoms: _125  and  _126
REMARK   56  A    between atoms: _126  and  _127
REMARK   57  A    between atoms: _131  and  _133
REMARK   58  A    between atoms: _133  and  _134
REMARK   59  A    between atoms: _133  and  _136
REMARK   60  A    between atoms: _136  and  _137
REMARK   61  A    between atoms: _137  and  _138
REMARK   62  A    between atoms: _140  and  _142
REMARK   63  A    between atoms: _142  and  _143
REMARK   64  A    between atoms: _142  and  _145
REMARK   65  A    between atoms: _145  and  _146
REMARK   66  A    between atoms: _149  and  _151
REMARK   67  A    between atoms: _151  and  _152
REMARK   68  A    between atoms: _154  and  _156
REMARK   69  A    between atoms: _156  and  _157
REMARK   70  A    between atoms: _159  and  _161
REMARK   71  A    between atoms: _161  and  _162
REMARK   72  A    between atoms: _161  and  _164
REMARK   73  A    between atoms: _164  and  _165
REMARK   74  A    between atoms: _168  and  _170
REMARK   75  A    between atoms: _170  and  _171
REMARK   76  A    between atoms: _173  and  _175
REMARK   77  A    between atoms: _175  and  _176
REMARK   78  A    between atoms: _178  and  _180
REMARK   79  A    between atoms: _180  and  _181
REMARK   80  A    between atoms: _180  and  _183
REMARK   81  A    between atoms: _183  and  _184
REMARK   82  A    between atoms: _190  and  _192
REMARK   83  A    between atoms: _192  and  _193
REMARK   84  A    between atoms: _192  and  _195
REMARK   85  A    between atoms: _195  and  _196
REMARK   86  A    between atoms: _199  and  _201
REMARK   87  A    between atoms: _201  and  _202
REMARK   88  A    between atoms: _201  and  _204
REMARK   89  A    between atoms: _207  and  _209
REMARK   90  A    between atoms: _209  and  _210
REMARK   91  A    between atoms: _209  and  _212
REMARK   92  A    between atoms: _212  and  _213
REMARK   93  A    between atoms: _216  and  _218
REMARK   94  A    between atoms: _218  and  _219
REMARK   95  A    between atoms: _218  and  _221
REMARK   96  A    between atoms: _221  and  _222
REMARK   97  A    between atoms: _226  and  _227
REMARK   98  A    between atoms: _232  and  _234
REMARK   99  A    between atoms: _234  and  _235
REMARK  100  A    between atoms: _234  and  _237
REMARK  101  A    between atoms: _240  and  _242
REMARK  102  A    between atoms: _242  and  _243
REMARK  103  A    between atoms: _242  and  _245
REMARK  104  A    between atoms: _245  and  _246
REMARK  105  A    between atoms: _251  and  _253
REMARK  106  A    between atoms: _253  and  _254
REMARK  107  A    between atoms: _253  and  _256
REMARK  108  A    between atoms: _256  and  _257
REMARK  109  A    between atoms: _260  and  _262
REMARK  110  A    between atoms: _262  and  _263
REMARK  111  A    between atoms: _262  and  _265
REMARK  112  A    between atoms: _265  and  _266
REMARK  113  A    between atoms: _269  and  _271
REMARK  114  A    between atoms: _271  and  _272
REMARK  115  A    between atoms: _274  and  _276
REMARK  116  A    between atoms: _276  and  _277
REMARK  117  A    between atoms: _276  and  _279
REMARK  118  A    between atoms: _279  and  _280
REMARK  119  A    between atoms: _280  and  _281
REMARK  120  A    between atoms: _281  and  _282
REMARK  121  A    between atoms: _291  and  _293
REMARK  122  A    between atoms: _293  and  _294
REMARK  123  A    between atoms: _293  and  _296
REMARK  124  A    between atoms: _296  and  _297
REMARK  125  A    between atoms: _302  and  _304
REMARK  126  A    between atoms: _304  and  _305
REMARK  127  A    between atoms: _304  and  _307
REMARK  128  A    between atoms: _307  and  _308
REMARK  129  A    between atoms: _308  and  _309
REMARK  130  A    between atoms: _309  and  _310
REMARK  131  A    between atoms: _319  and  _321
REMARK  132  A    between atoms: _321  and  _322
REMARK  133  A    between atoms: _321  and  _324
REMARK  134  A    between atoms: _324  and  _325
REMARK  135  A    between atoms: _328  and  _330
REMARK  136  A    between atoms: _330  and  _331
REMARK  137  A    between atoms: _330  and  _333
REMARK  138  A    between atoms: _333  and  _334
REMARK  139  A    between atoms: _337  and  _339
REMARK  140  A    between atoms: _339  and  _340
REMARK  141  A    between atoms: _339  and  _342
REMARK  142  A    between atoms: _342  and  _343
REMARK  143  A    between atoms: _346  and  _348
REMARK  144  A    between atoms: _348  and  _349
REMARK  145  A    between atoms: _348  and  _351
REMARK  146  A    between atoms: _351  and  _352
REMARK  147  A    between atoms: _355  and  _357
REMARK  148  A    between atoms: _357  and  _358
REMARK  149  A    between atoms: _357  and  _360
REMARK  150  A    between atoms: _360  and  _361
REMARK  151  A    between atoms: _364  and  _366
REMARK  152  A    between atoms: _366  and  _367
REMARK  153  A    between atoms: _369  and  _371
REMARK  154  A    between atoms: _371  and  _372
REMARK  155  A    between atoms: _375  and  _377
REMARK  156  A    between atoms: _377  and  _378
REMARK  157  A    between atoms: _377  and  _380
REMARK  158  A    between atoms: _380  and  _381
REMARK  159  A    between atoms: _384  and  _386
REMARK  160  A    between atoms: _386  and  _387
REMARK  161  A    between atoms: _386  and  _389
REMARK  162  A    between atoms: _389  and  _390
REMARK  163  A    between atoms: _393  and  _395
REMARK  164  A    between atoms: _395  and  _396
REMARK  165  A    between atoms: _395  and  _398
REMARK  166  A    between atoms: _398  and  _399
REMARK  167  A    between atoms: _402  and  _404
REMARK  168  A    between atoms: _404  and  _405
REMARK  169  A    between atoms: _404  and  _407
REMARK  170  A    between atoms: _410  and  _412
REMARK  171  A    between atoms: _412  and  _413
REMARK  172  A    between atoms: _412  and  _415
REMARK  173  A    between atoms: _415  and  _416
REMARK  174  A    between atoms: _419  and  _421
REMARK  175  A    between atoms: _421  and  _422
REMARK  176  A    between atoms: _421  and  _424
REMARK  177  A    between atoms: _424  and  _425
REMARK  178  A    between atoms: _425  and  _426
REMARK  179  A    between atoms: _426  and  _427
REMARK  180  A    between atoms: _427  and  _428
REMARK  181  A    between atoms: _432  and  _434
REMARK  182  A    between atoms: _434  and  _435
REMARK  183  A    between atoms: _434  and  _437
REMARK  184  A    between atoms: _437  and  _438
REMARK  185  A    between atoms: _438  and  _439
REMARK  186  A    between atoms: _441  and  _443
REMARK  187  A    between atoms: _443  and  _444
REMARK  188  A    between atoms: _443  and  _446
REMARK  189  A    between atoms: _446  and  _447
REMARK  190  A    between atoms: _450  and  _452
REMARK  191  A    between atoms: _452  and  _453
REMARK  192  A    between atoms: _455  and  _457
REMARK  193  A    between atoms: _457  and  _458
REMARK  194  A    between atoms: _460  and  _462
REMARK  195  A    between atoms: _462  and  _463
REMARK  196  A    between atoms: _462  and  _465
REMARK  197  A    between atoms: _465  and  _466
REMARK  198  A    between atoms: _469  and  _471
REMARK  199  A    between atoms: _471  and  _472
REMARK  200  A    between atoms: _474  and  _476
REMARK  201  A    between atoms: _476  and  _477
REMARK  202  A    between atoms: _479  and  _481
REMARK  203  A    between atoms: _481  and  _482
REMARK  204  A    between atoms: _481  and  _484
REMARK  205  A    between atoms: _484  and  _485
REMARK  206  A    between atoms: _491  and  _493
REMARK  207  A    between atoms: _493  and  _494
REMARK  208  A    between atoms: _493  and  _496
REMARK  209  A    between atoms: _496  and  _497
REMARK  210  A    between atoms: _500  and  _502
REMARK  211  A    between atoms: _502  and  _503
REMARK  212  A    between atoms: _502  and  _505
REMARK  213  A    between atoms: _508  and  _510
REMARK  214  A    between atoms: _510  and  _511
REMARK  215  A    between atoms: _510  and  _513
REMARK  216  A    between atoms: _513  and  _514
REMARK  217  A    between atoms: _517  and  _519
REMARK  218  A    between atoms: _519  and  _520
REMARK  219  A    between atoms: _519  and  _522
REMARK  220  A    between atoms: _522  and  _523
REMARK  221  A    between atoms: _527  and  _528
REMARK  222  A    between atoms: _533  and  _535
REMARK  223  A    between atoms: _535  and  _536
REMARK  224  A    between atoms: _535  and  _538
REMARK  225  A    between atoms: _541  and  _543
REMARK  226  A    between atoms: _543  and  _544
REMARK  227  A    between atoms: _543  and  _546
REMARK  228  A    between atoms: _546  and  _547
REMARK  229  A    between atoms: _552  and  _554
REMARK  230  A    between atoms: _554  and  _555
REMARK  231  A    between atoms: _554  and  _557
REMARK  232  A    between atoms: _557  and  _558
REMARK  233  A    between atoms: _561  and  _563
REMARK  234  A    between atoms: _563  and  _564
REMARK  235  A    between atoms: _563  and  _566
REMARK  236  A    between atoms: _566  and  _567
REMARK  237  A    between atoms: _570  and  _572
REMARK  238  A    between atoms: _572  and  _573
REMARK  239  A    between atoms: _575  and  _577
REMARK  240  A    between atoms: _577  and  _578
REMARK  241  A    between atoms: _577  and  _580
REMARK  242  A    between atoms: _580  and  _581
REMARK  243  A    between atoms: _581  and  _582
REMARK  244  A    between atoms: _582  and  _583
REMARK  245  A    between atoms: _592  and  _594
REMARK  246  A    between atoms: _594  and  _595
REMARK  247  A    between atoms: _594  and  _597
REMARK  248  A    between atoms: _597  and  _598
REMARK                            x       y       z     vdW  Elec       q    Type
REMARK                         _______ _______ _______ _____ _____    ______ ____
ROOT
ATOM      1  C   GLY A   5      12.443  18.501   9.277  0.00  0.00    +0.243 C 
ATOM      2  O   GLY A   5      12.561  17.772  10.261  0.00  0.00    -0.273 OA
ATOM      3  N   ILE A   6      11.775  19.648   9.317  0.00  0.00    -0.297 N 
ATOM      4  H   ILE A   6      11.672  20.218   8.453  0.00  0.00    +0.150 HD
ENDROOT
BRANCH   3   5
ATOM      5  CA  ILE A   6      11.186  20.110  10.566  0.00  0.00    +0.149 C 
BRANCH   5   6
ATOM      6  C   ILE A   6      10.091  19.208  11.122  0.00  0.00    +0.241 C 
ATOM      7  O   ILE A   6       9.920  19.125  12.338  0.00  0.00    -0.273 OA
ATOM      8  N   GLY A   7       9.356  18.526  10.248  0.00  0.00    -0.295 N 
ATOM      9  H   GLY A   7       9.555  18.601   9.230  0.00  0.00    +0.150 HD
BRANCH   8  10
ATOM     10  CA  GLY A   7       8.273  17.674  10.718  0.00  0.00    +0.176 C 
BRANCH  10  11
ATOM     11  C   GLY A   7       8.578  16.194  10.850  0.00  0.00    +0.243 C 
ATOM     12  O   GLY A   7       7.730  15.418  11.290  0.00  0.00    -0.273 OA
ATOM     13  N   GLY A   8       9.787  15.797  10.480  0.00  0.00    -0.295 N 
ATOM     14  H   GLY A   8      10.475  16.491  10.126  0.00  0.00    +0.150 HD
BRANCH  13  15
ATOM     15  CA  GLY A   8      10.152  14.397  10.568  0.00  0.00    +0.176 C 
BRANCH  15  16
ATOM     16  C   GLY A   8      10.898  13.953   9.329  0.00  0.00    +0.243 C 
ATOM     17  N   PHE A   9      10.899  12.650   9.068  0.00  0.00    -0.297 N 
ATOM     18  H   PHE A   9      10.387  12.003   9.701  0.00  0.00    +0.150 HD
ATOM     19  O   GLY A   8      11.452  14.777   8.609  0.00  0.00    -0.273 OA
BRANCH  17  20
ATOM     20  CA  PHE A   9      11.604  12.110   7.912  0.00  0.00    +0.153 C 
BRANCH  20  21
ATOM     21  C   PHE A   9      10.689  11.602   6.810  0.00  0.00    +0.241 C 
ATOM     22  O   PHE A   9       9.535  11.240   7.048  0.00  0.00    -0.273 OA
ATOM     23  N   ILE A  10      11.214  11.592   5.591  0.00  0.00    -0.298 N 
ATOM     24  H   ILE A  10      12.173  11.969   5.449  0.00  0.00    +0.150 HD
BRANCH  23  25
ATOM     25  CA  ILE A  10      10.485  11.069   4.451  0.00  0.00    +0.137 C 
BRANCH  25  26
ATOM     26  C   ILE A  10      11.480  10.260   3.636  0.00  0.00    +0.227 C 
ATOM     27  O   ILE A  10      12.678  10.550   3.635  0.00  0.00    -0.286 OA
ENDBRANCH  25  26
BRANCH  25  28
ATOM     28  CB  ILE A  10       9.876  12.180   3.553  0.00  0.00    +0.026 C 
ATOM     29  CG2 ILE A  10       8.832  12.970   4.341  0.00  0.00    +0.002 C 
BRANCH  28  30
ATOM     30  CG1 ILE A  10      10.973  13.100   3.019  0.00  0.00    +0.002 C 
ATOM     31  CD1 ILE A  10      10.472  14.106   2.001  0.00  0.00    +0.000 C 
ENDBRANCH  28  30
ENDBRANCH  25  28
ENDBRANCH  23  25
ENDBRANCH  20  21
BRANCH  20  32
ATOM     32  CB  PHE A   9      12.521  10.954   8.337  0.00  0.00    +0.055 C 
BRANCH  32  33
ATOM     33  CG  PHE A   9      13.689  11.373   9.182  0.00  0.00    -0.020 A 
ATOM     34  CD2 PHE A   9      13.504  11.799  10.492  0.00  0.00    -0.004 A 
ATOM     35  CE2 PHE A   9      14.588  12.182  11.279  0.00  0.00    -0.000 A 
ATOM     36  CZ  PHE A   9      15.875  12.142  10.753  0.00  0.00    -0.000 A 
ATOM     37  CE1 PHE A   9      16.071  11.719   9.444  0.00  0.00    -0.000 A 
ATOM     38  CD1 PHE A   9      14.980  11.337   8.666  0.00  0.00    -0.004 A 
ENDBRANCH  32  33
ENDBRANCH  20  32
ENDBRANCH  17  20
ENDBRANCH  15  16
ENDBRANCH  13  15
ENDBRANCH  10  11
ENDBRANCH   8  10
ENDBRANCH   5   6
BRANCH   5  39
ATOM     39  CB  ILE A   6      10.605  21.540  10.440  0.00  0.00    +0.027 C 
ATOM     40  CG2 ILE A   6      11.711  22.526  10.117  0.00  0.00    +0.002 C 
BRANCH  39  41
ATOM     41  CG1 ILE A   6       9.507  21.569   9.383  0.00  0.00    +0.002 C 
ATOM     42  CD1 ILE A   6       8.783  22.902   9.297  0.00  0.00    +0.000 C 
ENDBRANCH  39  41
ENDBRANCH   5  39
ENDBRANCH   3   5
BRANCH   1  43
ATOM     43  CA  GLY A   5      13.048  18.093   7.949  0.00  0.00    +0.176 C 
BRANCH  43  45
ATOM     44  C   GLY A   4      14.604  16.242   7.760  0.00  0.00    +0.243 C 
ATOM     45  N   GLY A   5      13.369  16.678   7.988  0.00  0.00    -0.295 N 
ATOM     46  H   GLY A   5      12.617  15.991   8.199  0.00  0.00    +0.150 HD
ATOM     47  O   GLY A   4      15.541  16.983   7.480  0.00  0.00    -0.273 OA
BRANCH  44  48
ATOM     48  CA  GLY A   4      14.801  14.745   7.850  0.00  0.00    +0.176 C 
BRANCH  48  50
ATOM     49  C   ILE A   3      15.007  13.483   5.808  0.00  0.00    +0.241 C 
ATOM     50  N   GLY A   4      15.587  14.209   6.755  0.00  0.00    -0.295 N 
ATOM     51  H   GLY A   4      16.609  14.395   6.712  0.00  0.00    +0.150 HD
ATOM     52  O   ILE A   3      13.805  13.219   5.803  0.00  0.00    -0.273 OA
BRANCH  49  53
ATOM     53  CA  ILE A   3      15.923  12.957   4.717  0.00  0.00    +0.149 C 
BRANCH  53  56
ATOM     54  C   MET A   2      16.427  10.606   4.527  0.00  0.00    +0.241 C 
ATOM     55  O   MET A   2      17.598  10.796   4.845  0.00  0.00    -0.273 OA
ATOM     56  N   ILE A   3      15.542  11.588   4.407  0.00  0.00    -0.297 N 
ATOM     57  H   ILE A   3      14.574  11.378   4.091  0.00  0.00    +0.150 HD
BRANCH  54  58
ATOM     58  CA  MET A   2      15.946   9.204   4.225  0.00  0.00    +0.149 C 
BRANCH  58  60
ATOM     59  C   LYS A   1      16.512   8.277   2.046  0.00  0.00    +0.238 C 
ATOM     60  N   MET A   2      16.882   8.664   3.257  0.00  0.00    -0.297 N 
ATOM     61  H   MET A   2      17.883   8.577   3.525  0.00  0.00    +0.150 HD
ATOM     62  O   LYS A   1      15.346   8.297   1.647  0.00  0.00    -0.274 OA
BRANCH  59  63
ATOM     63  CA  LYS A   1      17.630   7.757   1.165  0.00  0.00    +0.145 C 
BRANCH  63  64
ATOM     64  N   LYS A   1      17.093   6.743   0.279  0.00  0.00    -0.238 NA
ATOM     65  H   LYS A   1      16.082   6.757   0.036  0.00  0.00    +0.142 HD
ENDBRANCH  63  64
BRANCH  63  66
ATOM     66  CB  LYS A   1      18.251   8.913   0.375  0.00  0.00    +0.026 C 
BRANCH  66  67
ATOM     67  CG  LYS A   1      19.132   9.824   1.229  0.00  0.00    -0.000 C 
BRANCH  67  68
ATOM     68  CD  LYS A   1      19.777  10.917   0.400  0.00  0.00    -0.024 C 
BRANCH  68  69
ATOM     69  CE  LYS A   1      20.923  11.584   1.148  0.00  0.00    -0.086 C 
BRANCH  69  70
ATOM     70  NZ  LYS A   1      20.491  12.156   2.444  0.00  0.00    +0.380 N 
ATOM     71  HZ1 LYS A   1      20.110  11.398   3.046  0.00  0.00    -0.089 HD
ATOM     72  HZ2 LYS A   1      21.306  12.599   2.915  0.00  0.00    -0.089 HD
ATOM     73  HZ3 LYS A   1      19.755  12.871   2.278  0.00  0.00    -0.089 HD
ENDBRANCH  69  70
ENDBRANCH  68  69
ENDBRANCH  67  68
ENDBRANCH  66  67
ENDBRANCH  63  66
ENDBRANCH  59  63
ENDBRANCH  58  60
BRANCH  58  74
ATOM     74  CB  MET A   2      15.984   8.387   5.517  0.00  0.00    +0.041 C 
BRANCH  74  75
ATOM     75  CG  MET A   2      15.467   6.978   5.380  0.00  0.00    +0.060 C 
BRANCH  75  76
ATOM     76  SD  MET A   2      13.688   6.980   5.246  0.00  0.00    -0.139 S 
ATOM     77  CE  MET A   2      13.240   6.944   6.983  0.00  0.00    +0.069 C 
ENDBRANCH  75  76
ENDBRANCH  74  75
ENDBRANCH  58  74
ENDBRANCH  54  58
ENDBRANCH  53  56
BRANCH  53  78
ATOM     78  CB  ILE A   3      15.851  13.874   3.474  0.00  0.00    +0.027 C 
ATOM     79  CG2 ILE A   3      16.900  13.436   2.462  0.00  0.00    +0.002 C 
BRANCH  78  80
ATOM     80  CG1 ILE A   3      14.458  13.829   2.851  0.00  0.00    +0.002 C 
ATOM     81  CD1 ILE A   3      14.266  14.817   1.706  0.00  0.00    +0.000 C 
ENDBRANCH  78  80
ENDBRANCH  53  78
ENDBRANCH  49  53
ENDBRANCH  48  50
ENDBRANCH  44  48
ENDBRANCH  43  45
ENDBRANCH   1  43
TORSDOF 36
REMARK  Name = ../refined-set-2016/1d4i/1d4i_pocket.pdb
REMARK  248 active torsions:
REMARK  status: ('A' for Active; 'I' for Inactive)
REMARK    1  A    between atoms: _1  and  _3
REMARK    2  A    between atoms: _3  and  _4
REMARK    3  A    between atoms: _3  and  _6
REMARK    4  A    between atoms: _6  and  _7
REMARK    5  A    between atoms: _7  and  _8
REMARK    6  A    between atoms: _8  and  _9
REMARK    7  A    between atoms: _18  and  _20
REMARK    8  A    between atoms: _20  and  _21
REMARK    9  A    between atoms: _20  and  _23
REMARK   10  A    between atoms: _23  and  _24
REMARK   11  A    between atoms: _27  and  _29
REMARK   12  A    between atoms: _29  and  _30
REMARK   13  A    between atoms: _29  and  _32
REMARK   14  A    between atoms: _32  and  _33
REMARK   15  A    between atoms: _36  and  _38
REMARK   16  A    between atoms: _38  and  _39
REMARK   17  A    between atoms: _38  and  _41
REMARK   18  A    between atoms: _41  and  _42
REMARK   19  A    between atoms: _45  and  _47
REMARK   20  A    between atoms: _47  and  _48
REMARK   21  A    between atoms: _47  and  _50
REMARK   22  A    between atoms: _50  and  _51
REMARK   23  A    between atoms: _54  and  _56
REMARK   24  A    between atoms: _56  and  _57
REMARK   25  A    between atoms: _56  and  _59
REMARK   26  A    between atoms: _59  and  _60
REMARK   27  A    between atoms: _63  and  _65
REMARK   28  A    between atoms: _65  and  _66
REMARK   29  A    between atoms: _68  and  _70
REMARK   30  A    between atoms: _70  and  _71
REMARK   31  A    between atoms: _74  and  _76
REMARK   32  A    between atoms: _76  and  _77
REMARK   33  A    between atoms: _76  and  _79
REMARK   34  A    between atoms: _79  and  _80
REMARK   35  A    between atoms: _83  and  _85
REMARK   36  A    between atoms: _85  and  _86
REMARK   37  A    between atoms: _85  and  _88
REMARK   38  A    between atoms: _88  and  _89
REMARK   39  A    between atoms: _92  and  _94
REMARK   40  A    between atoms: _94  and  _95
REMARK   41  A    between atoms: _94  and  _97
REMARK   42  A    between atoms: _97  and  _98
REMARK   43  A    between atoms: _101  and  _103
REMARK   44  A    between atoms: _103  and  _104
REMARK   45  A    between atoms: _103  and  _106
REMARK   46  A    between atoms: _109  and  _111
REMARK   47  A    between atoms: _111  and  _112
REMARK   48  A    between atoms: _111  and  _114
REMARK   49  A    between atoms: _114  and  _115
REMARK   50  A    between atoms: _118  and  _120
REMARK   51  A    between atoms: _120  and  _121
REMARK   52  A    between atoms: _120  and  _123
REMARK   53  A    between atoms: _123  and  _124
REMARK   54  A    between atoms: _124  and  _125
REMARK   55  A    between atoms: _125  and  _126
REMARK   56  A    between atoms: _126  and  _127
REMARK   57  A    between atoms: _131  and  _133
REMARK   58  A    between atoms: _133  and  _134
REMARK   59  A    between atoms: _133  and  _136
REMARK   60  A    between atoms: _136  and  _137
REMARK   61  A    between atoms: _137  and  _138
REMARK   62  A    between atoms: _140  and  _142
REMARK   63  A    between atoms: _142  and  _143
REMARK   64  A    between atoms: _142  and  _145
REMARK   65  A    between atoms: _145  and  _146
REMARK   66  A    between atoms: _149  and  _151
REMARK   67  A    between atoms: _151  and  _152
REMARK   68  A    between atoms: _154  and  _156
REMARK   69  A    between atoms: _156  and  _157
REMARK   70  A    between atoms: _159  and  _161
REMARK   71  A    between atoms: _161  and  _162
REMARK   72  A    between atoms: _161  and  _164
REMARK   73  A    between atoms: _164  and  _165
REMARK   74  A    between atoms: _168  and  _170
REMARK   75  A    between atoms: _170  and  _171
REMARK   76  A    between atoms: _173  and  _175
REMARK   77  A    between atoms: _175  and  _176
REMARK   78  A    between atoms: _178  and  _180
REMARK   79  A    between atoms: _180  and  _181
REMARK   80  A    between atoms: _180  and  _183
REMARK   81  A    between atoms: _183  and  _184
REMARK   82  A    between atoms: _190  and  _192
REMARK   83  A    between atoms: _192  and  _193
REMARK   84  A    between atoms: _192  and  _195
REMARK   85  A    between atoms: _195  and  _196
REMARK   86  A    between atoms: _199  and  _201
REMARK   87  A    between atoms: _201  and  _202
REMARK   88  A    between atoms: _201  and  _204
REMARK   89  A    between atoms: _207  and  _209
REMARK   90  A    between atoms: _209  and  _210
REMARK   91  A    between atoms: _209  and  _212
REMARK   92  A    between atoms: _212  and  _213
REMARK   93  A    between atoms: _216  and  _218
REMARK   94  A    between atoms: _218  and  _219
REMARK   95  A    between atoms: _218  and  _221
REMARK   96  A    between atoms: _221  and  _222
REMARK   97  A    between atoms: _226  and  _227
REMARK   98  A    between atoms: _232  and  _234
REMARK   99  A    between atoms: _234  and  _235
REMARK  100  A    between atoms: _234  and  _237
REMARK  101  A    between atoms: _240  and  _242
REMARK  102  A    between atoms: _242  and  _243
REMARK  103  A    between atoms: _242  and  _245
REMARK  104  A    between atoms: _245  and  _246
REMARK  105  A    between atoms: _251  and  _253
REMARK  106  A    between atoms: _253  and  _254
REMARK  107  A    between atoms: _253  and  _256
REMARK  108  A    between atoms: _256  and  _257
REMARK  109  A    between atoms: _260  and  _262
REMARK  110  A    between atoms: _262  and  _263
REMARK  111  A    between atoms: _262  and  _265
REMARK  112  A    between atoms: _265  and  _266
REMARK  113  A    between atoms: _269  and  _271
REMARK  114  A    between atoms: _271  and  _272
REMARK  115  A    between atoms: _274  and  _276
REMARK  116  A    between atoms: _276  and  _277
REMARK  117  A    between atoms: _276  and  _279
REMARK  118  A    between atoms: _279  and  _280
REMARK  119  A    between atoms: _280  and  _281
REMARK  120  A    between atoms: _281  and  _282
REMARK  121  A    between atoms: _291  and  _293
REMARK  122  A    between atoms: _293  and  _294
REMARK  123  A    between atoms: _293  and  _296
REMARK  124  A    between atoms: _296  and  _297
REMARK  125  A    between atoms: _302  and  _304
REMARK  126  A    between atoms: _304  and  _305
REMARK  127  A    between atoms: _304  and  _307
REMARK  128  A    between atoms: _307  and  _308
REMARK  129  A    between atoms: _308  and  _309
REMARK  130  A    between atoms: _309  and  _310
REMARK  131  A    between atoms: _319  and  _321
REMARK  132  A    between atoms: _321  and  _322
REMARK  133  A    between atoms: _321  and  _324
REMARK  134  A    between atoms: _324  and  _325
REMARK  135  A    between atoms: _328  and  _330
REMARK  136  A    between atoms: _330  and  _331
REMARK  137  A    between atoms: _330  and  _333
REMARK  138  A    between atoms: _333  and  _334
REMARK  139  A    between atoms: _337  and  _339
REMARK  140  A    between atoms: _339  and  _340
REMARK  141  A    between atoms: _339  and  _342
REMARK  142  A    between atoms: _342  and  _343
REMARK  143  A    between atoms: _346  and  _348
REMARK  144  A    between atoms: _348  and  _349
REMARK  145  A    between atoms: _348  and  _351
REMARK  146  A    between atoms: _351  and  _352
REMARK  147  A    between atoms: _355  and  _357
REMARK  148  A    between atoms: _357  and  _358
REMARK  149  A    between atoms: _357  and  _360
REMARK  150  A    between atoms: _360  and  _361
REMARK  151  A    between atoms: _364  and  _366
REMARK  152  A    between atoms: _366  and  _367
REMARK  153  A    between atoms: _369  and  _371
REMARK  154  A    between atoms: _371  and  _372
REMARK  155  A    between atoms: _375  and  _377
REMARK  156  A    between atoms: _377  and  _378
REMARK  157  A    between atoms: _377  and  _380
REMARK  158  A    between atoms: _380  and  _381
REMARK  159  A    between atoms: _384  and  _386
REMARK  160  A    between atoms: _386  and  _387
REMARK  161  A    between atoms: _386  and  _389
REMARK  162  A    between atoms: _389  and  _390
REMARK  163  A    between atoms: _393  and  _395
REMARK  164  A    between atoms: _395  and  _396
REMARK  165  A    between atoms: _395  and  _398
REMARK  166  A    between atoms: _398  and  _399
REMARK  167  A    between atoms: _402  and  _404
REMARK  168  A    between atoms: _404  and  _405
REMARK  169  A    between atoms: _404  and  _407
REMARK  170  A    between atoms: _410  and  _412
REMARK  171  A    between atoms: _412  and  _413
REMARK  172  A    between atoms: _412  and  _415
REMARK  173  A    between atoms: _415  and  _416
REMARK  174  A    between atoms: _419  and  _421
REMARK  175  A    between atoms: _421  and  _422
REMARK  176  A    between atoms: _421  and  _424
REMARK  177  A    between atoms: _424  and  _425
REMARK  178  A    between atoms: _425  and  _426
REMARK  179  A    between atoms: _426  and  _427
REMARK  180  A    between atoms: _427  and  _428
REMARK  181  A    between atoms: _432  and  _434
REMARK  182  A    between atoms: _434  and  _435
REMARK  183  A    between atoms: _434  and  _437
REMARK  184  A    between atoms: _437  and  _438
REMARK  185  A    between atoms: _438  and  _439
REMARK  186  A    between atoms: _441  and  _443
REMARK  187  A    between atoms: _443  and  _444
REMARK  188  A    between atoms: _443  and  _446
REMARK  189  A    between atoms: _446  and  _447
REMARK  190  A    between atoms: _450  and  _452
REMARK  191  A    between atoms: _452  and  _453
REMARK  192  A    between atoms: _455  and  _457
REMARK  193  A    between atoms: _457  and  _458
REMARK  194  A    between atoms: _460  and  _462
REMARK  195  A    between atoms: _462  and  _463
REMARK  196  A    between atoms: _462  and  _465
REMARK  197  A    between atoms: _465  and  _466
REMARK  198  A    between atoms: _469  and  _471
REMARK  199  A    between atoms: _471  and  _472
REMARK  200  A    between atoms: _474  and  _476
REMARK  201  A    between atoms: _476  and  _477
REMARK  202  A    between atoms: _479  and  _481
REMARK  203  A    between atoms: _481  and  _482
REMARK  204  A    between atoms: _481  and  _484
REMARK  205  A    between atoms: _484  and  _485
REMARK  206  A    between atoms: _491  and  _493
REMARK  207  A    between atoms: _493  and  _494
REMARK  208  A    between atoms: _493  and  _496
REMARK  209  A    between atoms: _496  and  _497
REMARK  210  A    between atoms: _500  and  _502
REMARK  211  A    between atoms: _502  and  _503
REMARK  212  A    between atoms: _502  and  _505
REMARK  213  A    between atoms: _508  and  _510
REMARK  214  A    between atoms: _510  and  _511
REMARK  215  A    between atoms: _510  and  _513
REMARK  216  A    between atoms: _513  and  _514
REMARK  217  A    between atoms: _517  and  _519
REMARK  218  A    between atoms: _519  and  _520
REMARK  219  A    between atoms: _519  and  _522
REMARK  220  A    between atoms: _522  and  _523
REMARK  221  A    between atoms: _527  and  _528
REMARK  222  A    between atoms: _533  and  _535
REMARK  223  A    between atoms: _535  and  _536
REMARK  224  A    between atoms: _535  and  _538
REMARK  225  A    between atoms: _541  and  _543
REMARK  226  A    between atoms: _543  and  _544
REMARK  227  A    between atoms: _543  and  _546
REMARK  228  A    between atoms: _546  and  _547
REMARK  229  A    between atoms: _552  and  _554
REMARK  230  A    between atoms: _554  and  _555
REMARK  231  A    between atoms: _554  and  _557
REMARK  232  A    between atoms: _557  and  _558
REMARK  233  A    between atoms: _561  and  _563
REMARK  234  A    between atoms: _563  and  _564
REMARK  235  A    between atoms: _563  and  _566
REMARK  236  A    between atoms: _566  and  _567
REMARK  237  A    between atoms: _570  and  _572
REMARK  238  A    between atoms: _572  and  _573
REMARK  239  A    between atoms: _575  and  _577
REMARK  240  A    between atoms: _577  and  _578
REMARK  241  A    between atoms: _577  and  _580
REMARK  242  A    between atoms: _580  and  _581
REMARK  243  A    between atoms: _581  and  _582
REMARK  244  A    between atoms: _582  and  _583
REMARK  245  A    between atoms: _592  and  _594
REMARK  246  A    between atoms: _594  and  _595
REMARK  247  A    between atoms: _594  and  _597
REMARK  248  A    between atoms: _597  and  _598
REMARK                            x       y       z     vdW  Elec       q    Type
REMARK                         _______ _______ _______ _____ _____    ______ ____
ROOT
ATOM      1  CA  VAL A   1      13.061   9.582  -1.244  0.00  0.00    +0.133 C 
ENDROOT
BRANCH   1   2
ATOM      2  CB  VAL A   1      13.673  11.004  -1.261  0.00  0.00    +0.023 C 
ATOM      3  CG2 VAL A   1      12.770  11.967  -0.505  0.00  0.00    +0.002 C 
ATOM      4  CG1 VAL A   1      15.064  10.981  -0.637  0.00  0.00    +0.002 C 
ENDBRANCH   1   2
BRANCH   1   5
ATOM      5  N   VAL A   1      12.975   9.062   0.109  0.00  0.00    -0.239 NA
ATOM      6  H   VAL A   1      13.844   8.767   0.599  0.00  0.00    +0.142 HD
ENDBRANCH   1   5
BRANCH   1   7
ATOM      7  C   VAL A   1      13.923   8.673  -2.104  0.00  0.00    +0.224 C 
ATOM      8  O   VAL A   1      14.625   7.794  -1.591  0.00  0.00    -0.287 OA
ENDBRANCH   1   7
TORSDOF 3
REMARK  Name = ../refined-set-2016/1d4i/1d4i_pocket.pdb
REMARK  248 active torsions:
REMARK  status: ('A' for Active; 'I' for Inactive)
REMARK    1  A    between atoms: _1  and  _3
REMARK    2  A    between atoms: _3  and  _4
REMARK    3  A    between atoms: _3  and  _6
REMARK    4  A    between atoms: _6  and  _7
REMARK    5  A    between atoms: _7  and  _8
REMARK    6  A    between atoms: _8  and  _9
REMARK    7  A    between atoms: _18  and  _20
REMARK    8  A    between atoms: _20  and  _21
REMARK    9  A    between atoms: _20  and  _23
REMARK   10  A    between atoms: _23  and  _24
REMARK   11  A    between atoms: _27  and  _29
REMARK   12  A    between atoms: _29  and  _30
REMARK   13  A    between atoms: _29  and  _32
REMARK   14  A    between atoms: _32  and  _33
REMARK   15  A    between atoms: _36  and  _38
REMARK   16  A    between atoms: _38  and  _39
REMARK   17  A    between atoms: _38  and  _41
REMARK   18  A    between atoms: _41  and  _42
REMARK   19  A    between atoms: _45  and  _47
REMARK   20  A    between atoms: _47  and  _48
REMARK   21  A    between atoms: _47  and  _50
REMARK   22  A    between atoms: _50  and  _51
REMARK   23  A    between atoms: _54  and  _56
REMARK   24  A    between atoms: _56  and  _57
REMARK   25  A    between atoms: _56  and  _59
REMARK   26  A    between atoms: _59  and  _60
REMARK   27  A    between atoms: _63  and  _65
REMARK   28  A    between atoms: _65  and  _66
REMARK   29  A    between atoms: _68  and  _70
REMARK   30  A    between atoms: _70  and  _71
REMARK   31  A    between atoms: _74  and  _76
REMARK   32  A    between atoms: _76  and  _77
REMARK   33  A    between atoms: _76  and  _79
REMARK   34  A    between atoms: _79  and  _80
REMARK   35  A    between atoms: _83  and  _85
REMARK   36  A    between atoms: _85  and  _86
REMARK   37  A    between atoms: _85  and  _88
REMARK   38  A    between atoms: _88  and  _89
REMARK   39  A    between atoms: _92  and  _94
REMARK   40  A    between atoms: _94  and  _95
REMARK   41  A    between atoms: _94  and  _97
REMARK   42  A    between atoms: _97  and  _98
REMARK   43  A    between atoms: _101  and  _103
REMARK   44  A    between atoms: _103  and  _104
REMARK   45  A    between atoms: _103  and  _106
REMARK   46  A    between atoms: _109  and  _111
REMARK   47  A    between atoms: _111  and  _112
REMARK   48  A    between atoms: _111  and  _114
REMARK   49  A    between atoms: _114  and  _115
REMARK   50  A    between atoms: _118  and  _120
REMARK   51  A    between atoms: _120  and  _121
REMARK   52  A    between atoms: _120  and  _123
REMARK   53  A    between atoms: _123  and  _124
REMARK   54  A    between atoms: _124  and  _125
REMARK   55  A    between atoms: _125  and  _126
REMARK   56  A    between atoms: _126  and  _127
REMARK   57  A    between atoms: _131  and  _133
REMARK   58  A    between atoms: _133  and  _134
REMARK   59  A    between atoms: _133  and  _136
REMARK   60  A    between atoms: _136  and  _137
REMARK   61  A    between atoms: _137  and  _138
REMARK   62  A    between atoms: _140  and  _142
REMARK   63  A    between atoms: _142  and  _143
REMARK   64  A    between atoms: _142  and  _145
REMARK   65  A    between atoms: _145  and  _146
REMARK   66  A    between atoms: _149  and  _151
REMARK   67  A    between atoms: _151  and  _152
REMARK   68  A    between atoms: _154  and  _156
REMARK   69  A    between atoms: _156  and  _157
REMARK   70  A    between atoms: _159  and  _161
REMARK   71  A    between atoms: _161  and  _162
REMARK   72  A    between atoms: _161  and  _164
REMARK   73  A    between atoms: _164  and  _165
REMARK   74  A    between atoms: _168  and  _170
REMARK   75  A    between atoms: _170  and  _171
REMARK   76  A    between atoms: _173  and  _175
REMARK   77  A    between atoms: _175  and  _176
REMARK   78  A    between atoms: _178  and  _180
REMARK   79  A    between atoms: _180  and  _181
REMARK   80  A    between atoms: _180  and  _183
REMARK   81  A    between atoms: _183  and  _184
REMARK   82  A    between atoms: _190  and  _192
REMARK   83  A    between atoms: _192  and  _193
REMARK   84  A    between atoms: _192  and  _195
REMARK   85  A    between atoms: _195  and  _196
REMARK   86  A    between atoms: _199  and  _201
REMARK   87  A    between atoms: _201  and  _202
REMARK   88  A    between atoms: _201  and  _204
REMARK   89  A    between atoms: _207  and  _209
REMARK   90  A    between atoms: _209  and  _210
REMARK   91  A    between atoms: _209  and  _212
REMARK   92  A    between atoms: _212  and  _213
REMARK   93  A    between atoms: _216  and  _218
REMARK   94  A    between atoms: _218  and  _219
REMARK   95  A    between atoms: _218  and  _221
REMARK   96  A    between atoms: _221  and  _222
REMARK   97  A    between atoms: _226  and  _227
REMARK   98  A    between atoms: _232  and  _234
REMARK   99  A    between atoms: _234  and  _235
REMARK  100  A    between atoms: _234  and  _237
REMARK  101  A    between atoms: _240  and  _242
REMARK  102  A    between atoms: _242  and  _243
REMARK  103  A    between atoms: _242  and  _245
REMARK  104  A    between atoms: _245  and  _246
REMARK  105  A    between atoms: _251  and  _253
REMARK  106  A    between atoms: _253  and  _254
REMARK  107  A    between atoms: _253  and  _256
REMARK  108  A    between atoms: _256  and  _257
REMARK  109  A    between atoms: _260  and  _262
REMARK  110  A    between atoms: _262  and  _263
REMARK  111  A    between atoms: _262  and  _265
REMARK  112  A    between atoms: _265  and  _266
REMARK  113  A    between atoms: _269  and  _271
REMARK  114  A    between atoms: _271  and  _272
REMARK  115  A    between atoms: _274  and  _276
REMARK  116  A    between atoms: _276  and  _277
REMARK  117  A    between atoms: _276  and  _279
REMARK  118  A    between atoms: _279  and  _280
REMARK  119  A    between atoms: _280  and  _281
REMARK  120  A    between atoms: _281  and  _282
REMARK  121  A    between atoms: _291  and  _293
REMARK  122  A    between atoms: _293  and  _294
REMARK  123  A    between atoms: _293  and  _296
REMARK  124  A    between atoms: _296  and  _297
REMARK  125  A    between atoms: _302  and  _304
REMARK  126  A    between atoms: _304  and  _305
REMARK  127  A    between atoms: _304  and  _307
REMARK  128  A    between atoms: _307  and  _308
REMARK  129  A    between atoms: _308  and  _309
REMARK  130  A    between atoms: _309  and  _310
REMARK  131  A    between atoms: _319  and  _321
REMARK  132  A    between atoms: _321  and  _322
REMARK  133  A    between atoms: _321  and  _324
REMARK  134  A    between atoms: _324  and  _325
REMARK  135  A    between atoms: _328  and  _330
REMARK  136  A    between atoms: _330  and  _331
REMARK  137  A    between atoms: _330  and  _333
REMARK  138  A    between atoms: _333  and  _334
REMARK  139  A    between atoms: _337  and  _339
REMARK  140  A    between atoms: _339  and  _340
REMARK  141  A    between atoms: _339  and  _342
REMARK  142  A    between atoms: _342  and  _343
REMARK  143  A    between atoms: _346  and  _348
REMARK  144  A    between atoms: _348  and  _349
REMARK  145  A    between atoms: _348  and  _351
REMARK  146  A    between atoms: _351  and  _352
REMARK  147  A    between atoms: _355  and  _357
REMARK  148  A    between atoms: _357  and  _358
REMARK  149  A    between atoms: _357  and  _360
REMARK  150  A    between atoms: _360  and  _361
REMARK  151  A    between atoms: _364  and  _366
REMARK  152  A    between atoms: _366  and  _367
REMARK  153  A    between atoms: _369  and  _371
REMARK  154  A    between atoms: _371  and  _372
REMARK  155  A    between atoms: _375  and  _377
REMARK  156  A    between atoms: _377  and  _378
REMARK  157  A    between atoms: _377  and  _380
REMARK  158  A    between atoms: _380  and  _381
REMARK  159  A    between atoms: _384  and  _386
REMARK  160  A    between atoms: _386  and  _387
REMARK  161  A    between atoms: _386  and  _389
REMARK  162  A    between atoms: _389  and  _390
REMARK  163  A    between atoms: _393  and  _395
REMARK  164  A    between atoms: _395  and  _396
REMARK  165  A    between atoms: _395  and  _398
REMARK  166  A    between atoms: _398  and  _399
REMARK  167  A    between atoms: _402  and  _404
REMARK  168  A    between atoms: _404  and  _405
REMARK  169  A    between atoms: _404  and  _407
REMARK  170  A    between atoms: _410  and  _412
REMARK  171  A    between atoms: _412  and  _413
REMARK  172  A    between atoms: _412  and  _415
REMARK  173  A    between atoms: _415  and  _416
REMARK  174  A    between atoms: _419  and  _421
REMARK  175  A    between atoms: _421  and  _422
REMARK  176  A    between atoms: _421  and  _424
REMARK  177  A    between atoms: _424  and  _425
REMARK  178  A    between atoms: _425  and  _426
REMARK  179  A    between atoms: _426  and  _427
REMARK  180  A    between atoms: _427  and  _428
REMARK  181  A    between atoms: _432  and  _434
REMARK  182  A    between atoms: _434  and  _435
REMARK  183  A    between atoms: _434  and  _437
REMARK  184  A    between atoms: _437  and  _438
REMARK  185  A    between atoms: _438  and  _439
REMARK  186  A    between atoms: _441  and  _443
REMARK  187  A    between atoms: _443  and  _444
REMARK  188  A    between atoms: _443  and  _446
REMARK  189  A    between atoms: _446  and  _447
REMARK  190  A    between atoms: _450  and  _452
REMARK  191  A    between atoms: _452  and  _453
REMARK  192  A    between atoms: _455  and  _457
REMARK  193  A    between atoms: _457  and  _458
REMARK  194  A    between atoms: _460  and  _462
REMARK  195  A    between atoms: _462  and  _463
REMARK  196  A    between atoms: _462  and  _465
REMARK  197  A    between atoms: _465  and  _466
REMARK  198  A    between atoms: _469  and  _471
REMARK  199  A    between atoms: _471  and  _472
REMARK  200  A    between atoms: _474  and  _476
REMARK  201  A    between atoms: _476  and  _477
REMARK  202  A    between atoms: _479  and  _481
REMARK  203  A    between atoms: _481  and  _482
REMARK  204  A    between atoms: _481  and  _484
REMARK  205  A    between atoms: _484  and  _485
REMARK  206  A    between atoms: _491  and  _493
REMARK  207  A    between atoms: _493  and  _494
REMARK  208  A    between atoms: _493  and  _496
REMARK  209  A    between atoms: _496  and  _497
REMARK  210  A    between atoms: _500  and  _502
REMARK  211  A    between atoms: _502  and  _503
REMARK  212  A    between atoms: _502  and  _505
REMARK  213  A    between atoms: _508  and  _510
REMARK  214  A    between atoms: _510  and  _511
REMARK  215  A    between atoms: _510  and  _513
REMARK  216  A    between atoms: _513  and  _514
REMARK  217  A    between atoms: _517  and  _519
REMARK  218  A    between atoms: _519  and  _520
REMARK  219  A    between atoms: _519  and  _522
REMARK  220  A    between atoms: _522  and  _523
REMARK  221  A    between atoms: _527  and  _528
REMARK  222  A    between atoms: _533  and  _535
REMARK  223  A    between atoms: _535  and  _536
REMARK  224  A    between atoms: _535  and  _538
REMARK  225  A    between atoms: _541  and  _543
REMARK  226  A    between atoms: _543  and  _544
REMARK  227  A    between atoms: _543  and  _546
REMARK  228  A    between atoms: _546  and  _547
REMARK  229  A    between atoms: _552  and  _554
REMARK  230  A    between atoms: _554  and  _555
REMARK  231  A    between atoms: _554  and  _557
REMARK  232  A    between atoms: _557  and  _558
REMARK  233  A    between atoms: _561  and  _563
REMARK  234  A    between atoms: _563  and  _564
REMARK  235  A    between atoms: _563  and  _566
REMARK  236  A    between atoms: _566  and  _567
REMARK  237  A    between atoms: _570  and  _572
REMARK  238  A    between atoms: _572  and  _573
REMARK  239  A    between atoms: _575  and  _577
REMARK  240  A    between atoms: _577  and  _578
REMARK  241  A    between atoms: _577  and  _580
REMARK  242  A    between atoms: _580  and  _581
REMARK  243  A    between atoms: _581  and  _582
REMARK  244  A    between atoms: _582  and  _583
REMARK  245  A    between atoms: _592  and  _594
REMARK  246  A    between atoms: _594  and  _595
REMARK  247  A    between atoms: _594  and  _597
REMARK  248  A    between atoms: _597  and  _598
REMARK                            x       y       z     vdW  Elec       q    Type
REMARK                         _______ _______ _______ _____ _____    ______ ____
ROOT
ATOM      1  CA  LEU A   1      16.188  13.352  -4.759  0.00  0.00    +0.133 C 
ENDROOT
BRANCH   1   2
ATOM      2  N   LEU A   1      17.051  14.248  -5.511  0.00  0.00    -0.239 NA
ATOM      3  H   LEU A   1      17.113  15.248  -5.231  0.00  0.00    +0.142 HD
ENDBRANCH   1   2
BRANCH   1   4
ATOM      4  C   LEU A   1      14.754  13.571  -5.218  0.00  0.00    +0.224 C 
ATOM      5  O   LEU A   1      14.366  14.686  -5.555  0.00  0.00    -0.287 OA
ENDBRANCH   1   4
BRANCH   1   6
ATOM      6  CB  LEU A   1      16.304  13.645  -3.262  0.00  0.00    +0.025 C 
BRANCH   6   7
ATOM      7  CG  LEU A   1      17.738  13.630  -2.735  0.00  0.00    +0.002 C 
ATOM      8  CD2 LEU A   1      17.748  13.976  -1.247  0.00  0.00    +0.000 C 
ATOM      9  CD1 LEU A   1      18.357  12.257  -2.994  0.00  0.00    +0.000 C 
ENDBRANCH   6   7
ENDBRANCH   1   6
TORSDOF 4
REMARK  Name = ../refined-set-2016/1d4i/1d4i_pocket.pdb
REMARK  248 active torsions:
REMARK  status: ('A' for Active; 'I' for Inactive)
REMARK    1  A    between atoms: _1  and  _3
REMARK    2  A    between atoms: _3  and  _4
REMARK    3  A    between atoms: _3  and  _6
REMARK    4  A    between atoms: _6  and  _7
REMARK    5  A    between atoms: _7  and  _8
REMARK    6  A    between atoms: _8  and  _9
REMARK    7  A    between atoms: _18  and  _20
REMARK    8  A    between atoms: _20  and  _21
REMARK    9  A    between atoms: _20  and  _23
REMARK   10  A    between atoms: _23  and  _24
REMARK   11  A    between atoms: _27  and  _29
REMARK   12  A    between atoms: _29  and  _30
REMARK   13  A    between atoms: _29  and  _32
REMARK   14  A    between atoms: _32  and  _33
REMARK   15  A    between atoms: _36  and  _38
REMARK   16  A    between atoms: _38  and  _39
REMARK   17  A    between atoms: _38  and  _41
REMARK   18  A    between atoms: _41  and  _42
REMARK   19  A    between atoms: _45  and  _47
REMARK   20  A    between atoms: _47  and  _48
REMARK   21  A    between atoms: _47  and  _50
REMARK   22  A    between atoms: _50  and  _51
REMARK   23  A    between atoms: _54  and  _56
REMARK   24  A    between atoms: _56  and  _57
REMARK   25  A    between atoms: _56  and  _59
REMARK   26  A    between atoms: _59  and  _60
REMARK   27  A    between atoms: _63  and  _65
REMARK   28  A    between atoms: _65  and  _66
REMARK   29  A    between atoms: _68  and  _70
REMARK   30  A    between atoms: _70  and  _71
REMARK   31  A    between atoms: _74  and  _76
REMARK   32  A    between atoms: _76  and  _77
REMARK   33  A    between atoms: _76  and  _79
REMARK   34  A    between atoms: _79  and  _80
REMARK   35  A    between atoms: _83  and  _85
REMARK   36  A    between atoms: _85  and  _86
REMARK   37  A    between atoms: _85  and  _88
REMARK   38  A    between atoms: _88  and  _89
REMARK   39  A    between atoms: _92  and  _94
REMARK   40  A    between atoms: _94  and  _95
REMARK   41  A    between atoms: _94  and  _97
REMARK   42  A    between atoms: _97  and  _98
REMARK   43  A    between atoms: _101  and  _103
REMARK   44  A    between atoms: _103  and  _104
REMARK   45  A    between atoms: _103  and  _106
REMARK   46  A    between atoms: _109  and  _111
REMARK   47  A    between atoms: _111  and  _112
REMARK   48  A    between atoms: _111  and  _114
REMARK   49  A    between atoms: _114  and  _115
REMARK   50  A    between atoms: _118  and  _120
REMARK   51  A    between atoms: _120  and  _121
REMARK   52  A    between atoms: _120  and  _123
REMARK   53  A    between atoms: _123  and  _124
REMARK   54  A    between atoms: _124  and  _125
REMARK   55  A    between atoms: _125  and  _126
REMARK   56  A    between atoms: _126  and  _127
REMARK   57  A    between atoms: _131  and  _133
REMARK   58  A    between atoms: _133  and  _134
REMARK   59  A    between atoms: _133  and  _136
REMARK   60  A    between atoms: _136  and  _137
REMARK   61  A    between atoms: _137  and  _138
REMARK   62  A    between atoms: _140  and  _142
REMARK   63  A    between atoms: _142  and  _143
REMARK   64  A    between atoms: _142  and  _145
REMARK   65  A    between atoms: _145  and  _146
REMARK   66  A    between atoms: _149  and  _151
REMARK   67  A    between atoms: _151  and  _152
REMARK   68  A    between atoms: _154  and  _156
REMARK   69  A    between atoms: _156  and  _157
REMARK   70  A    between atoms: _159  and  _161
REMARK   71  A    between atoms: _161  and  _162
REMARK   72  A    between atoms: _161  and  _164
REMARK   73  A    between atoms: _164  and  _165
REMARK   74  A    between atoms: _168  and  _170
REMARK   75  A    between atoms: _170  and  _171
REMARK   76  A    between atoms: _173  and  _175
REMARK   77  A    between atoms: _175  and  _176
REMARK   78  A    between atoms: _178  and  _180
REMARK   79  A    between atoms: _180  and  _181
REMARK   80  A    between atoms: _180  and  _183
REMARK   81  A    between atoms: _183  and  _184
REMARK   82  A    between atoms: _190  and  _192
REMARK   83  A    between atoms: _192  and  _193
REMARK   84  A    between atoms: _192  and  _195
REMARK   85  A    between atoms: _195  and  _196
REMARK   86  A    between atoms: _199  and  _201
REMARK   87  A    between atoms: _201  and  _202
REMARK   88  A    between atoms: _201  and  _204
REMARK   89  A    between atoms: _207  and  _209
REMARK   90  A    between atoms: _209  and  _210
REMARK   91  A    between atoms: _209  and  _212
REMARK   92  A    between atoms: _212  and  _213
REMARK   93  A    between atoms: _216  and  _218
REMARK   94  A    between atoms: _218  and  _219
REMARK   95  A    between atoms: _218  and  _221
REMARK   96  A    between atoms: _221  and  _222
REMARK   97  A    between atoms: _226  and  _227
REMARK   98  A    between atoms: _232  and  _234
REMARK   99  A    between atoms: _234  and  _235
REMARK  100  A    between atoms: _234  and  _237
REMARK  101  A    between atoms: _240  and  _242
REMARK  102  A    between atoms: _242  and  _243
REMARK  103  A    between atoms: _242  and  _245
REMARK  104  A    between atoms: _245  and  _246
REMARK  105  A    between atoms: _251  and  _253
REMARK  106  A    between atoms: _253  and  _254
REMARK  107  A    between atoms: _253  and  _256
REMARK  108  A    between atoms: _256  and  _257
REMARK  109  A    between atoms: _260  and  _262
REMARK  110  A    between atoms: _262  and  _263
REMARK  111  A    between atoms: _262  and  _265
REMARK  112  A    between atoms: _265  and  _266
REMARK  113  A    between atoms: _269  and  _271
REMARK  114  A    between atoms: _271  and  _272
REMARK  115  A    between atoms: _274  and  _276
REMARK  116  A    between atoms: _276  and  _277
REMARK  117  A    between atoms: _276  and  _279
REMARK  118  A    between atoms: _279  and  _280
REMARK  119  A    between atoms: _280  and  _281
REMARK  120  A    between atoms: _281  and  _282
REMARK  121  A    between atoms: _291  and  _293
REMARK  122  A    between atoms: _293  and  _294
REMARK  123  A    between atoms: _293  and  _296
REMARK  124  A    between atoms: _296  and  _297
REMARK  125  A    between atoms: _302  and  _304
REMARK  126  A    between atoms: _304  and  _305
REMARK  127  A    between atoms: _304  and  _307
REMARK  128  A    between atoms: _307  and  _308
REMARK  129  A    between atoms: _308  and  _309
REMARK  130  A    between atoms: _309  and  _310
REMARK  131  A    between atoms: _319  and  _321
REMARK  132  A    between atoms: _321  and  _322
REMARK  133  A    between atoms: _321  and  _324
REMARK  134  A    between atoms: _324  and  _325
REMARK  135  A    between atoms: _328  and  _330
REMARK  136  A    between atoms: _330  and  _331
REMARK  137  A    between atoms: _330  and  _333
REMARK  138  A    between atoms: _333  and  _334
REMARK  139  A    between atoms: _337  and  _339
REMARK  140  A    between atoms: _339  and  _340
REMARK  141  A    between atoms: _339  and  _342
REMARK  142  A    between atoms: _342  and  _343
REMARK  143  A    between atoms: _346  and  _348
REMARK  144  A    between atoms: _348  and  _349
REMARK  145  A    between atoms: _348  and  _351
REMARK  146  A    between atoms: _351  and  _352
REMARK  147  A    between atoms: _355  and  _357
REMARK  148  A    between atoms: _357  and  _358
REMARK  149  A    between atoms: _357  and  _360
REMARK  150  A    between atoms: _360  and  _361
REMARK  151  A    between atoms: _364  and  _366
REMARK  152  A    between atoms: _366  and  _367
REMARK  153  A    between atoms: _369  and  _371
REMARK  154  A    between atoms: _371  and  _372
REMARK  155  A    between atoms: _375  and  _377
REMARK  156  A    between atoms: _377  and  _378
REMARK  157  A    between atoms: _377  and  _380
REMARK  158  A    between atoms: _380  and  _381
REMARK  159  A    between atoms: _384  and  _386
REMARK  160  A    between atoms: _386  and  _387
REMARK  161  A    between atoms: _386  and  _389
REMARK  162  A    between atoms: _389  and  _390
REMARK  163  A    between atoms: _393  and  _395
REMARK  164  A    between atoms: _395  and  _396
REMARK  165  A    between atoms: _395  and  _398
REMARK  166  A    between atoms: _398  and  _399
REMARK  167  A    between atoms: _402  and  _404
REMARK  168  A    between atoms: _404  and  _405
REMARK  169  A    between atoms: _404  and  _407
REMARK  170  A    between atoms: _410  and  _412
REMARK  171  A    between atoms: _412  and  _413
REMARK  172  A    between atoms: _412  and  _415
REMARK  173  A    between atoms: _415  and  _416
REMARK  174  A    between atoms: _419  and  _421
REMARK  175  A    between atoms: _421  and  _422
REMARK  176  A    between atoms: _421  and  _424
REMARK  177  A    between atoms: _424  and  _425
REMARK  178  A    between atoms: _425  and  _426
REMARK  179  A    between atoms: _426  and  _427
REMARK  180  A    between atoms: _427  and  _428
REMARK  181  A    between atoms: _432  and  _434
REMARK  182  A    between atoms: _434  and  _435
REMARK  183  A    between atoms: _434  and  _437
REMARK  184  A    between atoms: _437  and  _438
REMARK  185  A    between atoms: _438  and  _439
REMARK  186  A    between atoms: _441  and  _443
REMARK  187  A    between atoms: _443  and  _444
REMARK  188  A    between atoms: _443  and  _446
REMARK  189  A    between atoms: _446  and  _447
REMARK  190  A    between atoms: _450  and  _452
REMARK  191  A    between atoms: _452  and  _453
REMARK  192  A    between atoms: _455  and  _457
REMARK  193  A    between atoms: _457  and  _458
REMARK  194  A    between atoms: _460  and  _462
REMARK  195  A    between atoms: _462  and  _463
REMARK  196  A    between atoms: _462  and  _465
REMARK  197  A    between atoms: _465  and  _466
REMARK  198  A    between atoms: _469  and  _471
REMARK  199  A    between atoms: _471  and  _472
REMARK  200  A    between atoms: _474  and  _476
REMARK  201  A    between atoms: _476  and  _477
REMARK  202  A    between atoms: _479  and  _481
REMARK  203  A    between atoms: _481  and  _482
REMARK  204  A    between atoms: _481  and  _484
REMARK  205  A    between atoms: _484  and  _485
REMARK  206  A    between atoms: _491  and  _493
REMARK  207  A    between atoms: _493  and  _494
REMARK  208  A    between atoms: _493  and  _496
REMARK  209  A    between atoms: _496  and  _497
REMARK  210  A    between atoms: _500  and  _502
REMARK  211  A    between atoms: _502  and  _503
REMARK  212  A    between atoms: _502  and  _505
REMARK  213  A    between atoms: _508  and  _510
REMARK  214  A    between atoms: _510  and  _511
REMARK  215  A    between atoms: _510  and  _513
REMARK  216  A    between atoms: _513  and  _514
REMARK  217  A    between atoms: _517  and  _519
REMARK  218  A    between atoms: _519  and  _520
REMARK  219  A    between atoms: _519  and  _522
REMARK  220  A    between atoms: _522  and  _523
REMARK  221  A    between atoms: _527  and  _528
REMARK  222  A    between atoms: _533  and  _535
REMARK  223  A    between atoms: _535  and  _536
REMARK  224  A    between atoms: _535  and  _538
REMARK  225  A    between atoms: _541  and  _543
REMARK  226  A    between atoms: _543  and  _544
REMARK  227  A    between atoms: _543  and  _546
REMARK  228  A    between atoms: _546  and  _547
REMARK  229  A    between atoms: _552  and  _554
REMARK  230  A    between atoms: _554  and  _555
REMARK  231  A    between atoms: _554  and  _557
REMARK  232  A    between atoms: _557  and  _558
REMARK  233  A    between atoms: _561  and  _563
REMARK  234  A    between atoms: _563  and  _564
REMARK  235  A    between atoms: _563  and  _566
REMARK  236  A    between atoms: _566  and  _567
REMARK  237  A    between atoms: _570  and  _572
REMARK  238  A    between atoms: _572  and  _573
REMARK  239  A    between atoms: _575  and  _577
REMARK  240  A    between atoms: _577  and  _578
REMARK  241  A    between atoms: _577  and  _580
REMARK  242  A    between atoms: _580  and  _581
REMARK  243  A    between atoms: _581  and  _582
REMARK  244  A    between atoms: _582  and  _583
REMARK  245  A    between atoms: _592  and  _594
REMARK  246  A    between atoms: _594  and  _595
REMARK  247  A    between atoms: _594  and  _597
REMARK  248  A    between atoms: _597  and  _598
REMARK                            x       y       z     vdW  Elec       q    Type
REMARK                         _______ _______ _______ _____ _____    ______ ____
ROOT
ATOM      1  C   ILE A   5      15.179  22.196  -4.003  0.00  0.00    +0.241 C 
ATOM      2  O   ILE A   5      15.641  21.081  -4.232  0.00  0.00    -0.273 OA
ATOM      3  N   ILE A   6      15.840  23.319  -4.262  0.00  0.00    -0.297 N 
ATOM      4  H   ILE A   6      15.383  24.236  -4.085  0.00  0.00    +0.150 HD
ENDROOT
BRANCH   3   5
ATOM      5  CA  ILE A   6      17.194  23.282  -4.790  0.00  0.00    +0.149 C 
BRANCH   5   6
ATOM      6  C   ILE A   6      18.068  23.488  -3.558  0.00  0.00    +0.241 C 
ATOM      7  O   ILE A   6      18.072  24.572  -2.963  0.00  0.00    -0.273 OA
ATOM      8  N   GLY A   7      18.788  22.439  -3.172  0.00  0.00    -0.295 N 
ATOM      9  H   GLY A   7      18.748  21.559  -3.726  0.00  0.00    +0.150 HD
BRANCH   8  10
ATOM     10  CA  GLY A   7      19.630  22.501  -1.990  0.00  0.00    +0.176 C 
BRANCH  10  11
ATOM     11  C   GLY A   7      21.072  22.911  -2.214  0.00  0.00    +0.243 C 
ATOM     12  N   ARG A   8      21.851  22.910  -1.138  0.00  0.00    -0.297 N 
ATOM     13  H   ARG A   8      21.458  22.603  -0.225  0.00  0.00    +0.150 HD
ATOM     14  O   GLY A   7      21.480  23.209  -3.331  0.00  0.00    -0.273 OA
BRANCH  12  15
ATOM     15  CA  ARG A   8      23.245  23.330  -1.209  0.00  0.00    +0.149 C 
BRANCH  15  16
ATOM     16  C   ARG A   8      24.100  22.564  -2.207  0.00  0.00    +0.241 C 
ATOM     17  N   ASN A   9      23.803  21.286  -2.424  0.00  0.00    -0.298 N 
ATOM     18  H   ASN A   9      23.003  20.844  -1.929  0.00  0.00    +0.150 HD
ATOM     19  O   ARG A   8      25.017  23.139  -2.792  0.00  0.00    -0.273 OA
BRANCH  17  20
ATOM     20  CA  ASN A   9      24.606  20.509  -3.360  0.00  0.00    +0.146 C 
BRANCH  20  21
ATOM     21  C   ASN A   9      24.604  21.134  -4.755  0.00  0.00    +0.227 C 
ATOM     22  O   ASN A   9      25.610  21.082  -5.457  0.00  0.00    -0.286 OA
ENDBRANCH  20  21
BRANCH  20  23
ATOM     23  CB  ASN A   9      24.139  19.046  -3.418  0.00  0.00    +0.112 C 
BRANCH  23  24
ATOM     24  CG  ASN A   9      22.817  18.872  -4.140  0.00  0.00    +0.222 C 
ATOM     25  OD1 ASN A   9      21.805  19.478  -3.778  0.00  0.00    -0.275 OA
ATOM     26  ND2 ASN A   9      22.818  18.031  -5.171  0.00  0.00    -0.329 N 
ATOM     27 HD21 ASN A   9      23.695  17.541  -5.442  0.00  0.00    +0.145 HD
ATOM     28 HD22 ASN A   9      21.942  17.864  -5.706  0.00  0.00    +0.145 HD
ENDBRANCH  23  24
ENDBRANCH  20  23
ENDBRANCH  17  20
ENDBRANCH  15  16
BRANCH  15  29
ATOM     29  CB  ARG A   8      23.892  23.277   0.186  0.00  0.00    +0.033 C 
BRANCH  29  30
ATOM     30  CG  ARG A   8      23.344  24.336   1.142  0.00  0.00    +0.045 C 
BRANCH  30  31
ATOM     31  CD  ARG A   8      24.141  24.453   2.448  0.00  0.00    +0.174 C 
BRANCH  31  32
ATOM     32  NE  ARG A   8      24.150  23.199   3.195  0.00  0.00    -0.265 N 
ATOM     33  HE  ARG A   8      23.317  22.975   3.776  0.00  0.00    +0.259 HD
ATOM     34  CZ  ARG A   8      25.151  22.323   3.183  0.00  0.00    +0.342 C 
ATOM     35  NH2 ARG A   8      25.043  21.197   3.870  0.00  0.00    -0.292 N 
ATOM     36 HH21 ARG A   8      24.179  21.001   4.415  0.00  0.00    +0.255 HD
ATOM     37 HH22 ARG A   8      25.822  20.508   3.865  0.00  0.00    +0.255 HD
ATOM     38  NH1 ARG A   8      26.246  22.559   2.469  0.00  0.00    -0.292 N 
ATOM     39 HH11 ARG A   8      27.024  21.868   2.466  0.00  0.00    +0.255 HD
ATOM     40 HH12 ARG A   8      26.326  23.434   1.913  0.00  0.00    +0.255 HD
ENDBRANCH  31  32
ENDBRANCH  30  31
ENDBRANCH  29  30
ENDBRANCH  15  29
ENDBRANCH  12  15
ENDBRANCH  10  11
ENDBRANCH   8  10
ENDBRANCH   5   6
BRANCH   5  41
ATOM     41  CB  ILE A   6      17.454  24.418  -5.792  0.00  0.00    +0.027 C 
ATOM     42  CG2 ILE A   6      18.889  24.339  -6.294  0.00  0.00    +0.002 C 
BRANCH  41  43
ATOM     43  CG1 ILE A   6      16.448  24.336  -6.948  0.00  0.00    +0.002 C 
ATOM     44  CD1 ILE A   6      16.441  23.008  -7.689  0.00  0.00    +0.000 C 
ENDBRANCH  41  43
ENDBRANCH   5  41
ENDBRANCH   3   5
BRANCH   1  45
ATOM     45  CA  ILE A   5      13.795  22.351  -3.385  0.00  0.00    +0.149 C 
BRANCH  45  47
ATOM     46  C   ASN A   4      11.680  22.355  -4.590  0.00  0.00    +0.241 C 
ATOM     47  N   ILE A   5      12.734  21.691  -4.130  0.00  0.00    -0.297 N 
ATOM     48  H   ILE A   5      12.803  20.669  -4.308  0.00  0.00    +0.150 HD
ATOM     49  O   ASN A   4      11.535  23.569  -4.461  0.00  0.00    -0.273 OA
BRANCH  46  50
ATOM     50  CA  ASN A   4      10.628  21.523  -5.300  0.00  0.00    +0.158 C 
BRANCH  50  53
ATOM     51  C   VAL A   3       9.032  21.436  -3.475  0.00  0.00    +0.241 C 
ATOM     52  O   VAL A   3       9.776  20.718  -2.808  0.00  0.00    -0.273 OA
ATOM     53  N   ASN A   4       9.344  21.859  -4.697  0.00  0.00    -0.297 N 
ATOM     54  H   ASN A   4       8.663  22.437  -5.229  0.00  0.00    +0.150 HD
BRANCH  51  55
ATOM     55  CA  VAL A   3       7.682  21.871  -2.920  0.00  0.00    +0.149 C 
BRANCH  55  57
ATOM     56  C   PRO A   2       6.015  20.761  -1.505  0.00  0.00    +0.241 C 
ATOM     57  N   VAL A   3       7.291  20.982  -1.825  0.00  0.00    -0.297 N 
ATOM     58  H   VAL A   3       8.035  20.505  -1.277  0.00  0.00    +0.150 HD
ATOM     59  O   PRO A   2       5.069  21.283  -2.099  0.00  0.00    -0.273 OA
BRANCH  56  65
ATOM     60  C   THR A   1       7.139  17.911  -1.017  0.00  0.00    +0.244 C 
ATOM     61  N   PRO A   2       6.857  18.860  -0.114  0.00  0.00    -0.272 N 
ATOM     62  CD  PRO A   2       7.387  18.990   1.253  0.00  0.00    +0.094 C 
ATOM     63  CG  PRO A   2       6.209  19.593   1.982  0.00  0.00    +0.024 C 
ATOM     64  CB  PRO A   2       5.680  20.569   0.991  0.00  0.00    +0.031 C 
ATOM     65  CA  PRO A   2       5.765  19.817  -0.337  0.00  0.00    +0.152 C 
ATOM     66  O   THR A   1       6.494  17.793  -2.055  0.00  0.00    -0.273 OA
BRANCH  60  67
ATOM     67  CA  THR A   1       8.288  16.955  -0.707  0.00  0.00    +0.172 C 
BRANCH  67  68
ATOM     68  CB  THR A   1       9.589  17.495  -1.340  0.00  0.00    +0.135 C 
ATOM     69  CG2 THR A   1       9.485  17.513  -2.859  0.00  0.00    +0.034 C 
BRANCH  68  70
ATOM     70  OG1 THR A   1       9.832  18.822  -0.862  0.00  0.00    -0.383 OA
ATOM     71  HG1 THR A   1       9.073  19.406  -1.113  0.00  0.00    +0.210 HD
ENDBRANCH  68  70
ENDBRANCH  67  68
BRANCH  67  72
ATOM     72  N   THR A   1       7.934  15.653  -1.251  0.00  0.00    -0.236 NA
ATOM     73  H   THR A   1       8.296  15.370  -2.184  0.00  0.00    +0.142 HD
ENDBRANCH  67  72
ENDBRANCH  60  67
ENDBRANCH  56  65
ENDBRANCH  55  57
BRANCH  55  74
ATOM     74  CB  VAL A   3       7.823  23.343  -2.449  0.00  0.00    +0.027 C 
ATOM     75  CG2 VAL A   3       8.824  23.427  -1.308  0.00  0.00    +0.002 C 
ATOM     76  CG1 VAL A   3       6.476  23.893  -2.009  0.00  0.00    +0.002 C 
ENDBRANCH  55  74
ENDBRANCH  51  55
ENDBRANCH  50  53
BRANCH  50  77
ATOM     77  CB  ASN A   4      10.630  21.838  -6.797  0.00  0.00    +0.114 C 
BRANCH  77  78
ATOM     78  CG  ASN A   4       9.683  20.944  -7.573  0.00  0.00    +0.222 C 
ATOM     79  OD1 ASN A   4       9.626  19.744  -7.332  0.00  0.00    -0.275 OA
ATOM     80  ND2 ASN A   4       8.946  21.523  -8.516  0.00  0.00    -0.329 N 
ATOM     81 HD21 ASN A   4       9.028  22.546  -8.685  0.00  0.00    +0.145 HD
ATOM     82 HD22 ASN A   4       8.287  20.953  -9.084  0.00  0.00    +0.145 HD
ENDBRANCH  77  78
ENDBRANCH  50  77
ENDBRANCH  46  50
ENDBRANCH  45  47
BRANCH  45  83
ATOM     83  CB  ILE A   5      13.864  21.784  -1.947  0.00  0.00    +0.027 C 
ATOM     84  CG2 ILE A   5      15.073  22.355  -1.209  0.00  0.00    +0.002 C 
BRANCH  83  85
ATOM     85  CG1 ILE A   5      12.565  22.096  -1.202  0.00  0.00    +0.002 C 
ATOM     86  CD1 ILE A   5      12.460  21.394   0.145  0.00  0.00    +0.000 C 
ENDBRANCH  83  85
ENDBRANCH  45  83
ENDBRANCH   1  45
TORSDOF 32
REMARK  Name = ../refined-set-2016/1d4i/1d4i_pocket.pdb
REMARK  248 active torsions:
REMARK  status: ('A' for Active; 'I' for Inactive)
REMARK    1  A    between atoms: _1  and  _3
REMARK    2  A    between atoms: _3  and  _4
REMARK    3  A    between atoms: _3  and  _6
REMARK    4  A    between atoms: _6  and  _7
REMARK    5  A    between atoms: _7  and  _8
REMARK    6  A    between atoms: _8  and  _9
REMARK    7  A    between atoms: _18  and  _20
REMARK    8  A    between atoms: _20  and  _21
REMARK    9  A    between atoms: _20  and  _23
REMARK   10  A    between atoms: _23  and  _24
REMARK   11  A    between atoms: _27  and  _29
REMARK   12  A    between atoms: _29  and  _30
REMARK   13  A    between atoms: _29  and  _32
REMARK   14  A    between atoms: _32  and  _33
REMARK   15  A    between atoms: _36  and  _38
REMARK   16  A    between atoms: _38  and  _39
REMARK   17  A    between atoms: _38  and  _41
REMARK   18  A    between atoms: _41  and  _42
REMARK   19  A    between atoms: _45  and  _47
REMARK   20  A    between atoms: _47  and  _48
REMARK   21  A    between atoms: _47  and  _50
REMARK   22  A    between atoms: _50  and  _51
REMARK   23  A    between atoms: _54  and  _56
REMARK   24  A    between atoms: _56  and  _57
REMARK   25  A    between atoms: _56  and  _59
REMARK   26  A    between atoms: _59  and  _60
REMARK   27  A    between atoms: _63  and  _65
REMARK   28  A    between atoms: _65  and  _66
REMARK   29  A    between atoms: _68  and  _70
REMARK   30  A    between atoms: _70  and  _71
REMARK   31  A    between atoms: _74  and  _76
REMARK   32  A    between atoms: _76  and  _77
REMARK   33  A    between atoms: _76  and  _79
REMARK   34  A    between atoms: _79  and  _80
REMARK   35  A    between atoms: _83  and  _85
REMARK   36  A    between atoms: _85  and  _86
REMARK   37  A    between atoms: _85  and  _88
REMARK   38  A    between atoms: _88  and  _89
REMARK   39  A    between atoms: _92  and  _94
REMARK   40  A    between atoms: _94  and  _95
REMARK   41  A    between atoms: _94  and  _97
REMARK   42  A    between atoms: _97  and  _98
REMARK   43  A    between atoms: _101  and  _103
REMARK   44  A    between atoms: _103  and  _104
REMARK   45  A    between atoms: _103  and  _106
REMARK   46  A    between atoms: _109  and  _111
REMARK   47  A    between atoms: _111  and  _112
REMARK   48  A    between atoms: _111  and  _114
REMARK   49  A    between atoms: _114  and  _115
REMARK   50  A    between atoms: _118  and  _120
REMARK   51  A    between atoms: _120  and  _121
REMARK   52  A    between atoms: _120  and  _123
REMARK   53  A    between atoms: _123  and  _124
REMARK   54  A    between atoms: _124  and  _125
REMARK   55  A    between atoms: _125  and  _126
REMARK   56  A    between atoms: _126  and  _127
REMARK   57  A    between atoms: _131  and  _133
REMARK   58  A    between atoms: _133  and  _134
REMARK   59  A    between atoms: _133  and  _136
REMARK   60  A    between atoms: _136  and  _137
REMARK   61  A    between atoms: _137  and  _138
REMARK   62  A    between atoms: _140  and  _142
REMARK   63  A    between atoms: _142  and  _143
REMARK   64  A    between atoms: _142  and  _145
REMARK   65  A    between atoms: _145  and  _146
REMARK   66  A    between atoms: _149  and  _151
REMARK   67  A    between atoms: _151  and  _152
REMARK   68  A    between atoms: _154  and  _156
REMARK   69  A    between atoms: _156  and  _157
REMARK   70  A    between atoms: _159  and  _161
REMARK   71  A    between atoms: _161  and  _162
REMARK   72  A    between atoms: _161  and  _164
REMARK   73  A    between atoms: _164  and  _165
REMARK   74  A    between atoms: _168  and  _170
REMARK   75  A    between atoms: _170  and  _171
REMARK   76  A    between atoms: _173  and  _175
REMARK   77  A    between atoms: _175  and  _176
REMARK   78  A    between atoms: _178  and  _180
REMARK   79  A    between atoms: _180  and  _181
REMARK   80  A    between atoms: _180  and  _183
REMARK   81  A    between atoms: _183  and  _184
REMARK   82  A    between atoms: _190  and  _192
REMARK   83  A    between atoms: _192  and  _193
REMARK   84  A    between atoms: _192  and  _195
REMARK   85  A    between atoms: _195  and  _196
REMARK   86  A    between atoms: _199  and  _201
REMARK   87  A    between atoms: _201  and  _202
REMARK   88  A    between atoms: _201  and  _204
REMARK   89  A    between atoms: _207  and  _209
REMARK   90  A    between atoms: _209  and  _210
REMARK   91  A    between atoms: _209  and  _212
REMARK   92  A    between atoms: _212  and  _213
REMARK   93  A    between atoms: _216  and  _218
REMARK   94  A    between atoms: _218  and  _219
REMARK   95  A    between atoms: _218  and  _221
REMARK   96  A    between atoms: _221  and  _222
REMARK   97  A    between atoms: _226  and  _227
REMARK   98  A    between atoms: _232  and  _234
REMARK   99  A    between atoms: _234  and  _235
REMARK  100  A    between atoms: _234  and  _237
REMARK  101  A    between atoms: _240  and  _242
REMARK  102  A    between atoms: _242  and  _243
REMARK  103  A    between atoms: _242  and  _245
REMARK  104  A    between atoms: _245  and  _246
REMARK  105  A    between atoms: _251  and  _253
REMARK  106  A    between atoms: _253  and  _254
REMARK  107  A    between atoms: _253  and  _256
REMARK  108  A    between atoms: _256  and  _257
REMARK  109  A    between atoms: _260  and  _262
REMARK  110  A    between atoms: _262  and  _263
REMARK  111  A    between atoms: _262  and  _265
REMARK  112  A    between atoms: _265  and  _266
REMARK  113  A    between atoms: _269  and  _271
REMARK  114  A    between atoms: _271  and  _272
REMARK  115  A    between atoms: _274  and  _276
REMARK  116  A    between atoms: _276  and  _277
REMARK  117  A    between atoms: _276  and  _279
REMARK  118  A    between atoms: _279  and  _280
REMARK  119  A    between atoms: _280  and  _281
REMARK  120  A    between atoms: _281  and  _282
REMARK  121  A    between atoms: _291  and  _293
REMARK  122  A    between atoms: _293  and  _294
REMARK  123  A    between atoms: _293  and  _296
REMARK  124  A    between atoms: _296  and  _297
REMARK  125  A    between atoms: _302  and  _304
REMARK  126  A    between atoms: _304  and  _305
REMARK  127  A    between atoms: _304  and  _307
REMARK  128  A    between atoms: _307  and  _308
REMARK  129  A    between atoms: _308  and  _309
REMARK  130  A    between atoms: _309  and  _310
REMARK  131  A    between atoms: _319  and  _321
REMARK  132  A    between atoms: _321  and  _322
REMARK  133  A    between atoms: _321  and  _324
REMARK  134  A    between atoms: _324  and  _325
REMARK  135  A    between atoms: _328  and  _330
REMARK  136  A    between atoms: _330  and  _331
REMARK  137  A    between atoms: _330  and  _333
REMARK  138  A    between atoms: _333  and  _334
REMARK  139  A    between atoms: _337  and  _339
REMARK  140  A    between atoms: _339  and  _340
REMARK  141  A    between atoms: _339  and  _342
REMARK  142  A    between atoms: _342  and  _343
REMARK  143  A    between atoms: _346  and  _348
REMARK  144  A    between atoms: _348  and  _349
REMARK  145  A    between atoms: _348  and  _351
REMARK  146  A    between atoms: _351  and  _352
REMARK  147  A    between atoms: _355  and  _357
REMARK  148  A    between atoms: _357  and  _358
REMARK  149  A    between atoms: _357  and  _360
REMARK  150  A    between atoms: _360  and  _361
REMARK  151  A    between atoms: _364  and  _366
REMARK  152  A    between atoms: _366  and  _367
REMARK  153  A    between atoms: _369  and  _371
REMARK  154  A    between atoms: _371  and  _372
REMARK  155  A    between atoms: _375  and  _377
REMARK  156  A    between atoms: _377  and  _378
REMARK  157  A    between atoms: _377  and  _380
REMARK  158  A    between atoms: _380  and  _381
REMARK  159  A    between atoms: _384  and  _386
REMARK  160  A    between atoms: _386  and  _387
REMARK  161  A    between atoms: _386  and  _389
REMARK  162  A    between atoms: _389  and  _390
REMARK  163  A    between atoms: _393  and  _395
REMARK  164  A    between atoms: _395  and  _396
REMARK  165  A    between atoms: _395  and  _398
REMARK  166  A    between atoms: _398  and  _399
REMARK  167  A    between atoms: _402  and  _404
REMARK  168  A    between atoms: _404  and  _405
REMARK  169  A    between atoms: _404  and  _407
REMARK  170  A    between atoms: _410  and  _412
REMARK  171  A    between atoms: _412  and  _413
REMARK  172  A    between atoms: _412  and  _415
REMARK  173  A    between atoms: _415  and  _416
REMARK  174  A    between atoms: _419  and  _421
REMARK  175  A    between atoms: _421  and  _422
REMARK  176  A    between atoms: _421  and  _424
REMARK  177  A    between atoms: _424  and  _425
REMARK  178  A    between atoms: _425  and  _426
REMARK  179  A    between atoms: _426  and  _427
REMARK  180  A    between atoms: _427  and  _428
REMARK  181  A    between atoms: _432  and  _434
REMARK  182  A    between atoms: _434  and  _435
REMARK  183  A    between atoms: _434  and  _437
REMARK  184  A    between atoms: _437  and  _438
REMARK  185  A    between atoms: _438  and  _439
REMARK  186  A    between atoms: _441  and  _443
REMARK  187  A    between atoms: _443  and  _444
REMARK  188  A    between atoms: _443  and  _446
REMARK  189  A    between atoms: _446  and  _447
REMARK  190  A    between atoms: _450  and  _452
REMARK  191  A    between atoms: _452  and  _453
REMARK  192  A    between atoms: _455  and  _457
REMARK  193  A    between atoms: _457  and  _458
REMARK  194  A    between atoms: _460  and  _462
REMARK  195  A    between atoms: _462  and  _463
REMARK  196  A    between atoms: _462  and  _465
REMARK  197  A    between atoms: _465  and  _466
REMARK  198  A    between atoms: _469  and  _471
REMARK  199  A    between atoms: _471  and  _472
REMARK  200  A    between atoms: _474  and  _476
REMARK  201  A    between atoms: _476  and  _477
REMARK  202  A    between atoms: _479  and  _481
REMARK  203  A    between atoms: _481  and  _482
REMARK  204  A    between atoms: _481  and  _484
REMARK  205  A    between atoms: _484  and  _485
REMARK  206  A    between atoms: _491  and  _493
REMARK  207  A    between atoms: _493  and  _494
REMARK  208  A    between atoms: _493  and  _496
REMARK  209  A    between atoms: _496  and  _497
REMARK  210  A    between atoms: _500  and  _502
REMARK  211  A    between atoms: _502  and  _503
REMARK  212  A    between atoms: _502  and  _505
REMARK  213  A    between atoms: _508  and  _510
REMARK  214  A    between atoms: _510  and  _511
REMARK  215  A    between atoms: _510  and  _513
REMARK  216  A    between atoms: _513  and  _514
REMARK  217  A    between atoms: _517  and  _519
REMARK  218  A    between atoms: _519  and  _520
REMARK  219  A    between atoms: _519  and  _522
REMARK  220  A    between atoms: _522  and  _523
REMARK  221  A    between atoms: _527  and  _528
REMARK  222  A    between atoms: _533  and  _535
REMARK  223  A    between atoms: _535  and  _536
REMARK  224  A    between atoms: _535  and  _538
REMARK  225  A    between atoms: _541  and  _543
REMARK  226  A    between atoms: _543  and  _544
REMARK  227  A    between atoms: _543  and  _546
REMARK  228  A    between atoms: _546  and  _547
REMARK  229  A    between atoms: _552  and  _554
REMARK  230  A    between atoms: _554  and  _555
REMARK  231  A    between atoms: _554  and  _557
REMARK  232  A    between atoms: _557  and  _558
REMARK  233  A    between atoms: _561  and  _563
REMARK  234  A    between atoms: _563  and  _564
REMARK  235  A    between atoms: _563  and  _566
REMARK  236  A    between atoms: _566  and  _567
REMARK  237  A    between atoms: _570  and  _572
REMARK  238  A    between atoms: _572  and  _573
REMARK  239  A    between atoms: _575  and  _577
REMARK  240  A    between atoms: _577  and  _578
REMARK  241  A    between atoms: _577  and  _580
REMARK  242  A    between atoms: _580  and  _581
REMARK  243  A    between atoms: _581  and  _582
REMARK  244  A    between atoms: _582  and  _583
REMARK  245  A    between atoms: _592  and  _594
REMARK  246  A    between atoms: _594  and  _595
REMARK  247  A    between atoms: _594  and  _597
REMARK  248  A    between atoms: _597  and  _598
REMARK                            x       y       z     vdW  Elec       q    Type
REMARK                         _______ _______ _______ _____ _____    ______ ____
ROOT
ATOM      1  O   HOH     1      11.153  30.678   1.670  0.00  0.00    +0.000 OA
ENDROOT
TORSDOF 0
REMARK  Name = ../refined-set-2016/1d4i/1d4i_pocket.pdb
REMARK  248 active torsions:
REMARK  status: ('A' for Active; 'I' for Inactive)
REMARK    1  A    between atoms: _1  and  _3
REMARK    2  A    between atoms: _3  and  _4
REMARK    3  A    between atoms: _3  and  _6
REMARK    4  A    between atoms: _6  and  _7
REMARK    5  A    between atoms: _7  and  _8
REMARK    6  A    between atoms: _8  and  _9
REMARK    7  A    between atoms: _18  and  _20
REMARK    8  A    between atoms: _20  and  _21
REMARK    9  A    between atoms: _20  and  _23
REMARK   10  A    between atoms: _23  and  _24
REMARK   11  A    between atoms: _27  and  _29
REMARK   12  A    between atoms: _29  and  _30
REMARK   13  A    between atoms: _29  and  _32
REMARK   14  A    between atoms: _32  and  _33
REMARK   15  A    between atoms: _36  and  _38
REMARK   16  A    between atoms: _38  and  _39
REMARK   17  A    between atoms: _38  and  _41
REMARK   18  A    between atoms: _41  and  _42
REMARK   19  A    between atoms: _45  and  _47
REMARK   20  A    between atoms: _47  and  _48
REMARK   21  A    between atoms: _47  and  _50
REMARK   22  A    between atoms: _50  and  _51
REMARK   23  A    between atoms: _54  and  _56
REMARK   24  A    between atoms: _56  and  _57
REMARK   25  A    between atoms: _56  and  _59
REMARK   26  A    between atoms: _59  and  _60
REMARK   27  A    between atoms: _63  and  _65
REMARK   28  A    between atoms: _65  and  _66
REMARK   29  A    between atoms: _68  and  _70
REMARK   30  A    between atoms: _70  and  _71
REMARK   31  A    between atoms: _74  and  _76
REMARK   32  A    between atoms: _76  and  _77
REMARK   33  A    between atoms: _76  and  _79
REMARK   34  A    between atoms: _79  and  _80
REMARK   35  A    between atoms: _83  and  _85
REMARK   36  A    between atoms: _85  and  _86
REMARK   37  A    between atoms: _85  and  _88
REMARK   38  A    between atoms: _88  and  _89
REMARK   39  A    between atoms: _92  and  _94
REMARK   40  A    between atoms: _94  and  _95
REMARK   41  A    between atoms: _94  and  _97
REMARK   42  A    between atoms: _97  and  _98
REMARK   43  A    between atoms: _101  and  _103
REMARK   44  A    between atoms: _103  and  _104
REMARK   45  A    between atoms: _103  and  _106
REMARK   46  A    between atoms: _109  and  _111
REMARK   47  A    between atoms: _111  and  _112
REMARK   48  A    between atoms: _111  and  _114
REMARK   49  A    between atoms: _114  and  _115
REMARK   50  A    between atoms: _118  and  _120
REMARK   51  A    between atoms: _120  and  _121
REMARK   52  A    between atoms: _120  and  _123
REMARK   53  A    between atoms: _123  and  _124
REMARK   54  A    between atoms: _124  and  _125
REMARK   55  A    between atoms: _125  and  _126
REMARK   56  A    between atoms: _126  and  _127
REMARK   57  A    between atoms: _131  and  _133
REMARK   58  A    between atoms: _133  and  _134
REMARK   59  A    between atoms: _133  and  _136
REMARK   60  A    between atoms: _136  and  _137
REMARK   61  A    between atoms: _137  and  _138
REMARK   62  A    between atoms: _140  and  _142
REMARK   63  A    between atoms: _142  and  _143
REMARK   64  A    between atoms: _142  and  _145
REMARK   65  A    between atoms: _145  and  _146
REMARK   66  A    between atoms: _149  and  _151
REMARK   67  A    between atoms: _151  and  _152
REMARK   68  A    between atoms: _154  and  _156
REMARK   69  A    between atoms: _156  and  _157
REMARK   70  A    between atoms: _159  and  _161
REMARK   71  A    between atoms: _161  and  _162
REMARK   72  A    between atoms: _161  and  _164
REMARK   73  A    between atoms: _164  and  _165
REMARK   74  A    between atoms: _168  and  _170
REMARK   75  A    between atoms: _170  and  _171
REMARK   76  A    between atoms: _173  and  _175
REMARK   77  A    between atoms: _175  and  _176
REMARK   78  A    between atoms: _178  and  _180
REMARK   79  A    between atoms: _180  and  _181
REMARK   80  A    between atoms: _180  and  _183
REMARK   81  A    between atoms: _183  and  _184
REMARK   82  A    between atoms: _190  and  _192
REMARK   83  A    between atoms: _192  and  _193
REMARK   84  A    between atoms: _192  and  _195
REMARK   85  A    between atoms: _195  and  _196
REMARK   86  A    between atoms: _199  and  _201
REMARK   87  A    between atoms: _201  and  _202
REMARK   88  A    between atoms: _201  and  _204
REMARK   89  A    between atoms: _207  and  _209
REMARK   90  A    between atoms: _209  and  _210
REMARK   91  A    between atoms: _209  and  _212
REMARK   92  A    between atoms: _212  and  _213
REMARK   93  A    between atoms: _216  and  _218
REMARK   94  A    between atoms: _218  and  _219
REMARK   95  A    between atoms: _218  and  _221
REMARK   96  A    between atoms: _221  and  _222
REMARK   97  A    between atoms: _226  and  _227
REMARK   98  A    between atoms: _232  and  _234
REMARK   99  A    between atoms: _234  and  _235
REMARK  100  A    between atoms: _234  and  _237
REMARK  101  A    between atoms: _240  and  _242
REMARK  102  A    between atoms: _242  and  _243
REMARK  103  A    between atoms: _242  and  _245
REMARK  104  A    between atoms: _245  and  _246
REMARK  105  A    between atoms: _251  and  _253
REMARK  106  A    between atoms: _253  and  _254
REMARK  107  A    between atoms: _253  and  _256
REMARK  108  A    between atoms: _256  and  _257
REMARK  109  A    between atoms: _260  and  _262
REMARK  110  A    between atoms: _262  and  _263
REMARK  111  A    between atoms: _262  and  _265
REMARK  112  A    between atoms: _265  and  _266
REMARK  113  A    between atoms: _269  and  _271
REMARK  114  A    between atoms: _271  and  _272
REMARK  115  A    between atoms: _274  and  _276
REMARK  116  A    between atoms: _276  and  _277
REMARK  117  A    between atoms: _276  and  _279
REMARK  118  A    between atoms: _279  and  _280
REMARK  119  A    between atoms: _280  and  _281
REMARK  120  A    between atoms: _281  and  _282
REMARK  121  A    between atoms: _291  and  _293
REMARK  122  A    between atoms: _293  and  _294
REMARK  123  A    between atoms: _293  and  _296
REMARK  124  A    between atoms: _296  and  _297
REMARK  125  A    between atoms: _302  and  _304
REMARK  126  A    between atoms: _304  and  _305
REMARK  127  A    between atoms: _304  and  _307
REMARK  128  A    between atoms: _307  and  _308
REMARK  129  A    between atoms: _308  and  _309
REMARK  130  A    between atoms: _309  and  _310
REMARK  131  A    between atoms: _319  and  _321
REMARK  132  A    between atoms: _321  and  _322
REMARK  133  A    between atoms: _321  and  _324
REMARK  134  A    between atoms: _324  and  _325
REMARK  135  A    between atoms: _328  and  _330
REMARK  136  A    between atoms: _330  and  _331
REMARK  137  A    between atoms: _330  and  _333
REMARK  138  A    between atoms: _333  and  _334
REMARK  139  A    between atoms: _337  and  _339
REMARK  140  A    between atoms: _339  and  _340
REMARK  141  A    between atoms: _339  and  _342
REMARK  142  A    between atoms: _342  and  _343
REMARK  143  A    between atoms: _346  and  _348
REMARK  144  A    between atoms: _348  and  _349
REMARK  145  A    between atoms: _348  and  _351
REMARK  146  A    between atoms: _351  and  _352
REMARK  147  A    between atoms: _355  and  _357
REMARK  148  A    between atoms: _357  and  _358
REMARK  149  A    between atoms: _357  and  _360
REMARK  150  A    between atoms: _360  and  _361
REMARK  151  A    between atoms: _364  and  _366
REMARK  152  A    between atoms: _366  and  _367
REMARK  153  A    between atoms: _369  and  _371
REMARK  154  A    between atoms: _371  and  _372
REMARK  155  A    between atoms: _375  and  _377
REMARK  156  A    between atoms: _377  and  _378
REMARK  157  A    between atoms: _377  and  _380
REMARK  158  A    between atoms: _380  and  _381
REMARK  159  A    between atoms: _384  and  _386
REMARK  160  A    between atoms: _386  and  _387
REMARK  161  A    between atoms: _386  and  _389
REMARK  162  A    between atoms: _389  and  _390
REMARK  163  A    between atoms: _393  and  _395
REMARK  164  A    between atoms: _395  and  _396
REMARK  165  A    between atoms: _395  and  _398
REMARK  166  A    between atoms: _398  and  _399
REMARK  167  A    between atoms: _402  and  _404
REMARK  168  A    between atoms: _404  and  _405
REMARK  169  A    between atoms: _404  and  _407
REMARK  170  A    between atoms: _410  and  _412
REMARK  171  A    between atoms: _412  and  _413
REMARK  172  A    between atoms: _412  and  _415
REMARK  173  A    between atoms: _415  and  _416
REMARK  174  A    between atoms: _419  and  _421
REMARK  175  A    between atoms: _421  and  _422
REMARK  176  A    between atoms: _421  and  _424
REMARK  177  A    between atoms: _424  and  _425
REMARK  178  A    between atoms: _425  and  _426
REMARK  179  A    between atoms: _426  and  _427
REMARK  180  A    between atoms: _427  and  _428
REMARK  181  A    between atoms: _432  and  _434
REMARK  182  A    between atoms: _434  and  _435
REMARK  183  A    between atoms: _434  and  _437
REMARK  184  A    between atoms: _437  and  _438
REMARK  185  A    between atoms: _438  and  _439
REMARK  186  A    between atoms: _441  and  _443
REMARK  187  A    between atoms: _443  and  _444
REMARK  188  A    between atoms: _443  and  _446
REMARK  189  A    between atoms: _446  and  _447
REMARK  190  A    between atoms: _450  and  _452
REMARK  191  A    between atoms: _452  and  _453
REMARK  192  A    between atoms: _455  and  _457
REMARK  193  A    between atoms: _457  and  _458
REMARK  194  A    between atoms: _460  and  _462
REMARK  195  A    between atoms: _462  and  _463
REMARK  196  A    between atoms: _462  and  _465
REMARK  197  A    between atoms: _465  and  _466
REMARK  198  A    between atoms: _469  and  _471
REMARK  199  A    between atoms: _471  and  _472
REMARK  200  A    between atoms: _474  and  _476
REMARK  201  A    between atoms: _476  and  _477
REMARK  202  A    between atoms: _479  and  _481
REMARK  203  A    between atoms: _481  and  _482
REMARK  204  A    between atoms: _481  and  _484
REMARK  205  A    between atoms: _484  and  _485
REMARK  206  A    between atoms: _491  and  _493
REMARK  207  A    between atoms: _493  and  _494
REMARK  208  A    between atoms: _493  and  _496
REMARK  209  A    between atoms: _496  and  _497
REMARK  210  A    between atoms: _500  and  _502
REMARK  211  A    between atoms: _502  and  _503
REMARK  212  A    between atoms: _502  and  _505
REMARK  213  A    between atoms: _508  and  _510
REMARK  214  A    between atoms: _510  and  _511
REMARK  215  A    between atoms: _510  and  _513
REMARK  216  A    between atoms: _513  and  _514
REMARK  217  A    between atoms: _517  and  _519
REMARK  218  A    between atoms: _519  and  _520
REMARK  219  A    between atoms: _519  and  _522
REMARK  220  A    between atoms: _522  and  _523
REMARK  221  A    between atoms: _527  and  _528
REMARK  222  A    between atoms: _533  and  _535
REMARK  223  A    between atoms: _535  and  _536
REMARK  224  A    between atoms: _535  and  _538
REMARK  225  A    between atoms: _541  and  _543
REMARK  226  A    between atoms: _543  and  _544
REMARK  227  A    between atoms: _543  and  _546
REMARK  228  A    between atoms: _546  and  _547
REMARK  229  A    between atoms: _552  and  _554
REMARK  230  A    between atoms: _554  and  _555
REMARK  231  A    between atoms: _554  and  _557
REMARK  232  A    between atoms: _557  and  _558
REMARK  233  A    between atoms: _561  and  _563
REMARK  234  A    between atoms: _563  and  _564
REMARK  235  A    between atoms: _563  and  _566
REMARK  236  A    between atoms: _566  and  _567
REMARK  237  A    between atoms: _570  and  _572
REMARK  238  A    between atoms: _572  and  _573
REMARK  239  A    between atoms: _575  and  _577
REMARK  240  A    between atoms: _577  and  _578
REMARK  241  A    between atoms: _577  and  _580
REMARK  242  A    between atoms: _580  and  _581
REMARK  243  A    between atoms: _581  and  _582
REMARK  244  A    between atoms: _582  and  _583
REMARK  245  A    between atoms: _592  and  _594
REMARK  246  A    between atoms: _594  and  _595
REMARK  247  A    between atoms: _594  and  _597
REMARK  248  A    between atoms: _597  and  _598
REMARK                            x       y       z     vdW  Elec       q    Type
REMARK                         _______ _______ _______ _____ _____    ______ ____
ROOT
ATOM      1  O   HOH     1       8.646  33.737  12.699  0.00  0.00    +0.000 OA
ENDROOT
TORSDOF 0
REMARK  Name = ../refined-set-2016/1d4i/1d4i_pocket.pdb
REMARK  248 active torsions:
REMARK  status: ('A' for Active; 'I' for Inactive)
REMARK    1  A    between atoms: _1  and  _3
REMARK    2  A    between atoms: _3  and  _4
REMARK    3  A    between atoms: _3  and  _6
REMARK    4  A    between atoms: _6  and  _7
REMARK    5  A    between atoms: _7  and  _8
REMARK    6  A    between atoms: _8  and  _9
REMARK    7  A    between atoms: _18  and  _20
REMARK    8  A    between atoms: _20  and  _21
REMARK    9  A    between atoms: _20  and  _23
REMARK   10  A    between atoms: _23  and  _24
REMARK   11  A    between atoms: _27  and  _29
REMARK   12  A    between atoms: _29  and  _30
REMARK   13  A    between atoms: _29  and  _32
REMARK   14  A    between atoms: _32  and  _33
REMARK   15  A    between atoms: _36  and  _38
REMARK   16  A    between atoms: _38  and  _39
REMARK   17  A    between atoms: _38  and  _41
REMARK   18  A    between atoms: _41  and  _42
REMARK   19  A    between atoms: _45  and  _47
REMARK   20  A    between atoms: _47  and  _48
REMARK   21  A    between atoms: _47  and  _50
REMARK   22  A    between atoms: _50  and  _51
REMARK   23  A    between atoms: _54  and  _56
REMARK   24  A    between atoms: _56  and  _57
REMARK   25  A    between atoms: _56  and  _59
REMARK   26  A    between atoms: _59  and  _60
REMARK   27  A    between atoms: _63  and  _65
REMARK   28  A    between atoms: _65  and  _66
REMARK   29  A    between atoms: _68  and  _70
REMARK   30  A    between atoms: _70  and  _71
REMARK   31  A    between atoms: _74  and  _76
REMARK   32  A    between atoms: _76  and  _77
REMARK   33  A    between atoms: _76  and  _79
REMARK   34  A    between atoms: _79  and  _80
REMARK   35  A    between atoms: _83  and  _85
REMARK   36  A    between atoms: _85  and  _86
REMARK   37  A    between atoms: _85  and  _88
REMARK   38  A    between atoms: _88  and  _89
REMARK   39  A    between atoms: _92  and  _94
REMARK   40  A    between atoms: _94  and  _95
REMARK   41  A    between atoms: _94  and  _97
REMARK   42  A    between atoms: _97  and  _98
REMARK   43  A    between atoms: _101  and  _103
REMARK   44  A    between atoms: _103  and  _104
REMARK   45  A    between atoms: _103  and  _106
REMARK   46  A    between atoms: _109  and  _111
REMARK   47  A    between atoms: _111  and  _112
REMARK   48  A    between atoms: _111  and  _114
REMARK   49  A    between atoms: _114  and  _115
REMARK   50  A    between atoms: _118  and  _120
REMARK   51  A    between atoms: _120  and  _121
REMARK   52  A    between atoms: _120  and  _123
REMARK   53  A    between atoms: _123  and  _124
REMARK   54  A    between atoms: _124  and  _125
REMARK   55  A    between atoms: _125  and  _126
REMARK   56  A    between atoms: _126  and  _127
REMARK   57  A    between atoms: _131  and  _133
REMARK   58  A    between atoms: _133  and  _134
REMARK   59  A    between atoms: _133  and  _136
REMARK   60  A    between atoms: _136  and  _137
REMARK   61  A    between atoms: _137  and  _138
REMARK   62  A    between atoms: _140  and  _142
REMARK   63  A    between atoms: _142  and  _143
REMARK   64  A    between atoms: _142  and  _145
REMARK   65  A    between atoms: _145  and  _146
REMARK   66  A    between atoms: _149  and  _151
REMARK   67  A    between atoms: _151  and  _152
REMARK   68  A    between atoms: _154  and  _156
REMARK   69  A    between atoms: _156  and  _157
REMARK   70  A    between atoms: _159  and  _161
REMARK   71  A    between atoms: _161  and  _162
REMARK   72  A    between atoms: _161  and  _164
REMARK   73  A    between atoms: _164  and  _165
REMARK   74  A    between atoms: _168  and  _170
REMARK   75  A    between atoms: _170  and  _171
REMARK   76  A    between atoms: _173  and  _175
REMARK   77  A    between atoms: _175  and  _176
REMARK   78  A    between atoms: _178  and  _180
REMARK   79  A    between atoms: _180  and  _181
REMARK   80  A    between atoms: _180  and  _183
REMARK   81  A    between atoms: _183  and  _184
REMARK   82  A    between atoms: _190  and  _192
REMARK   83  A    between atoms: _192  and  _193
REMARK   84  A    between atoms: _192  and  _195
REMARK   85  A    between atoms: _195  and  _196
REMARK   86  A    between atoms: _199  and  _201
REMARK   87  A    between atoms: _201  and  _202
REMARK   88  A    between atoms: _201  and  _204
REMARK   89  A    between atoms: _207  and  _209
REMARK   90  A    between atoms: _209  and  _210
REMARK   91  A    between atoms: _209  and  _212
REMARK   92  A    between atoms: _212  and  _213
REMARK   93  A    between atoms: _216  and  _218
REMARK   94  A    between atoms: _218  and  _219
REMARK   95  A    between atoms: _218  and  _221
REMARK   96  A    between atoms: _221  and  _222
REMARK   97  A    between atoms: _226  and  _227
REMARK   98  A    between atoms: _232  and  _234
REMARK   99  A    between atoms: _234  and  _235
REMARK  100  A    between atoms: _234  and  _237
REMARK  101  A    between atoms: _240  and  _242
REMARK  102  A    between atoms: _242  and  _243
REMARK  103  A    between atoms: _242  and  _245
REMARK  104  A    between atoms: _245  and  _246
REMARK  105  A    between atoms: _251  and  _253
REMARK  106  A    between atoms: _253  and  _254
REMARK  107  A    between atoms: _253  and  _256
REMARK  108  A    between atoms: _256  and  _257
REMARK  109  A    between atoms: _260  and  _262
REMARK  110  A    between atoms: _262  and  _263
REMARK  111  A    between atoms: _262  and  _265
REMARK  112  A    between atoms: _265  and  _266
REMARK  113  A    between atoms: _269  and  _271
REMARK  114  A    between atoms: _271  and  _272
REMARK  115  A    between atoms: _274  and  _276
REMARK  116  A    between atoms: _276  and  _277
REMARK  117  A    between atoms: _276  and  _279
REMARK  118  A    between atoms: _279  and  _280
REMARK  119  A    between atoms: _280  and  _281
REMARK  120  A    between atoms: _281  and  _282
REMARK  121  A    between atoms: _291  and  _293
REMARK  122  A    between atoms: _293  and  _294
REMARK  123  A    between atoms: _293  and  _296
REMARK  124  A    between atoms: _296  and  _297
REMARK  125  A    between atoms: _302  and  _304
REMARK  126  A    between atoms: _304  and  _305
REMARK  127  A    between atoms: _304  and  _307
REMARK  128  A    between atoms: _307  and  _308
REMARK  129  A    between atoms: _308  and  _309
REMARK  130  A    between atoms: _309  and  _310
REMARK  131  A    between atoms: _319  and  _321
REMARK  132  A    between atoms: _321  and  _322
REMARK  133  A    between atoms: _321  and  _324
REMARK  134  A    between atoms: _324  and  _325
REMARK  135  A    between atoms: _328  and  _330
REMARK  136  A    between atoms: _330  and  _331
REMARK  137  A    between atoms: _330  and  _333
REMARK  138  A    between atoms: _333  and  _334
REMARK  139  A    between atoms: _337  and  _339
REMARK  140  A    between atoms: _339  and  _340
REMARK  141  A    between atoms: _339  and  _342
REMARK  142  A    between atoms: _342  and  _343
REMARK  143  A    between atoms: _346  and  _348
REMARK  144  A    between atoms: _348  and  _349
REMARK  145  A    between atoms: _348  and  _351
REMARK  146  A    between atoms: _351  and  _352
REMARK  147  A    between atoms: _355  and  _357
REMARK  148  A    between atoms: _357  and  _358
REMARK  149  A    between atoms: _357  and  _360
REMARK  150  A    between atoms: _360  and  _361
REMARK  151  A    between atoms: _364  and  _366
REMARK  152  A    between atoms: _366  and  _367
REMARK  153  A    between atoms: _369  and  _371
REMARK  154  A    between atoms: _371  and  _372
REMARK  155  A    between atoms: _375  and  _377
REMARK  156  A    between atoms: _377  and  _378
REMARK  157  A    between atoms: _377  and  _380
REMARK  158  A    between atoms: _380  and  _381
REMARK  159  A    between atoms: _384  and  _386
REMARK  160  A    between atoms: _386  and  _387
REMARK  161  A    between atoms: _386  and  _389
REMARK  162  A    between atoms: _389  and  _390
REMARK  163  A    between atoms: _393  and  _395
REMARK  164  A    between atoms: _395  and  _396
REMARK  165  A    between atoms: _395  and  _398
REMARK  166  A    between atoms: _398  and  _399
REMARK  167  A    between atoms: _402  and  _404
REMARK  168  A    between atoms: _404  and  _405
REMARK  169  A    between atoms: _404  and  _407
REMARK  170  A    between atoms: _410  and  _412
REMARK  171  A    between atoms: _412  and  _413
REMARK  172  A    between atoms: _412  and  _415
REMARK  173  A    between atoms: _415  and  _416
REMARK  174  A    between atoms: _419  and  _421
REMARK  175  A    between atoms: _421  and  _422
REMARK  176  A    between atoms: _421  and  _424
REMARK  177  A    between atoms: _424  and  _425
REMARK  178  A    between atoms: _425  and  _426
REMARK  179  A    between atoms: _426  and  _427
REMARK  180  A    between atoms: _427  and  _428
REMARK  181  A    between atoms: _432  and  _434
REMARK  182  A    between atoms: _434  and  _435
REMARK  183  A    between atoms: _434  and  _437
REMARK  184  A    between atoms: _437  and  _438
REMARK  185  A    between atoms: _438  and  _439
REMARK  186  A    between atoms: _441  and  _443
REMARK  187  A    between atoms: _443  and  _444
REMARK  188  A    between atoms: _443  and  _446
REMARK  189  A    between atoms: _446  and  _447
REMARK  190  A    between atoms: _450  and  _452
REMARK  191  A    between atoms: _452  and  _453
REMARK  192  A    between atoms: _455  and  _457
REMARK  193  A    between atoms: _457  and  _458
REMARK  194  A    between atoms: _460  and  _462
REMARK  195  A    between atoms: _462  and  _463
REMARK  196  A    between atoms: _462  and  _465
REMARK  197  A    between atoms: _465  and  _466
REMARK  198  A    between atoms: _469  and  _471
REMARK  199  A    between atoms: _471  and  _472
REMARK  200  A    between atoms: _474  and  _476
REMARK  201  A    between atoms: _476  and  _477
REMARK  202  A    between atoms: _479  and  _481
REMARK  203  A    between atoms: _481  and  _482
REMARK  204  A    between atoms: _481  and  _484
REMARK  205  A    between atoms: _484  and  _485
REMARK  206  A    between atoms: _491  and  _493
REMARK  207  A    between atoms: _493  and  _494
REMARK  208  A    between atoms: _493  and  _496
REMARK  209  A    between atoms: _496  and  _497
REMARK  210  A    between atoms: _500  and  _502
REMARK  211  A    between atoms: _502  and  _503
REMARK  212  A    between atoms: _502  and  _505
REMARK  213  A    between atoms: _508  and  _510
REMARK  214  A    between atoms: _510  and  _511
REMARK  215  A    between atoms: _510  and  _513
REMARK  216  A    between atoms: _513  and  _514
REMARK  217  A    between atoms: _517  and  _519
REMARK  218  A    between atoms: _519  and  _520
REMARK  219  A    between atoms: _519  and  _522
REMARK  220  A    between atoms: _522  and  _523
REMARK  221  A    between atoms: _527  and  _528
REMARK  222  A    between atoms: _533  and  _535
REMARK  223  A    between atoms: _535  and  _536
REMARK  224  A    between atoms: _535  and  _538
REMARK  225  A    between atoms: _541  and  _543
REMARK  226  A    between atoms: _543  and  _544
REMARK  227  A    between atoms: _543  and  _546
REMARK  228  A    between atoms: _546  and  _547
REMARK  229  A    between atoms: _552  and  _554
REMARK  230  A    between atoms: _554  and  _555
REMARK  231  A    between atoms: _554  and  _557
REMARK  232  A    between atoms: _557  and  _558
REMARK  233  A    between atoms: _561  and  _563
REMARK  234  A    between atoms: _563  and  _564
REMARK  235  A    between atoms: _563  and  _566
REMARK  236  A    between atoms: _566  and  _567
REMARK  237  A    between atoms: _570  and  _572
REMARK  238  A    between atoms: _572  and  _573
REMARK  239  A    between atoms: _575  and  _577
REMARK  240  A    between atoms: _577  and  _578
REMARK  241  A    between atoms: _577  and  _580
REMARK  242  A    between atoms: _580  and  _581
REMARK  243  A    between atoms: _581  and  _582
REMARK  244  A    between atoms: _582  and  _583
REMARK  245  A    between atoms: _592  and  _594
REMARK  246  A    between atoms: _594  and  _595
REMARK  247  A    between atoms: _594  and  _597
REMARK  248  A    between atoms: _597  and  _598
REMARK                            x       y       z     vdW  Elec       q    Type
REMARK                         _______ _______ _______ _____ _____    ______ ____
ROOT
ATOM      1  O   HOH     1       9.300  28.700   1.954  0.00  0.00    +0.000 OA
ENDROOT
TORSDOF 0
REMARK  Name = ../refined-set-2016/1d4i/1d4i_pocket.pdb
REMARK  248 active torsions:
REMARK  status: ('A' for Active; 'I' for Inactive)
REMARK    1  A    between atoms: _1  and  _3
REMARK    2  A    between atoms: _3  and  _4
REMARK    3  A    between atoms: _3  and  _6
REMARK    4  A    between atoms: _6  and  _7
REMARK    5  A    between atoms: _7  and  _8
REMARK    6  A    between atoms: _8  and  _9
REMARK    7  A    between atoms: _18  and  _20
REMARK    8  A    between atoms: _20  and  _21
REMARK    9  A    between atoms: _20  and  _23
REMARK   10  A    between atoms: _23  and  _24
REMARK   11  A    between atoms: _27  and  _29
REMARK   12  A    between atoms: _29  and  _30
REMARK   13  A    between atoms: _29  and  _32
REMARK   14  A    between atoms: _32  and  _33
REMARK   15  A    between atoms: _36  and  _38
REMARK   16  A    between atoms: _38  and  _39
REMARK   17  A    between atoms: _38  and  _41
REMARK   18  A    between atoms: _41  and  _42
REMARK   19  A    between atoms: _45  and  _47
REMARK   20  A    between atoms: _47  and  _48
REMARK   21  A    between atoms: _47  and  _50
REMARK   22  A    between atoms: _50  and  _51
REMARK   23  A    between atoms: _54  and  _56
REMARK   24  A    between atoms: _56  and  _57
REMARK   25  A    between atoms: _56  and  _59
REMARK   26  A    between atoms: _59  and  _60
REMARK   27  A    between atoms: _63  and  _65
REMARK   28  A    between atoms: _65  and  _66
REMARK   29  A    between atoms: _68  and  _70
REMARK   30  A    between atoms: _70  and  _71
REMARK   31  A    between atoms: _74  and  _76
REMARK   32  A    between atoms: _76  and  _77
REMARK   33  A    between atoms: _76  and  _79
REMARK   34  A    between atoms: _79  and  _80
REMARK   35  A    between atoms: _83  and  _85
REMARK   36  A    between atoms: _85  and  _86
REMARK   37  A    between atoms: _85  and  _88
REMARK   38  A    between atoms: _88  and  _89
REMARK   39  A    between atoms: _92  and  _94
REMARK   40  A    between atoms: _94  and  _95
REMARK   41  A    between atoms: _94  and  _97
REMARK   42  A    between atoms: _97  and  _98
REMARK   43  A    between atoms: _101  and  _103
REMARK   44  A    between atoms: _103  and  _104
REMARK   45  A    between atoms: _103  and  _106
REMARK   46  A    between atoms: _109  and  _111
REMARK   47  A    between atoms: _111  and  _112
REMARK   48  A    between atoms: _111  and  _114
REMARK   49  A    between atoms: _114  and  _115
REMARK   50  A    between atoms: _118  and  _120
REMARK   51  A    between atoms: _120  and  _121
REMARK   52  A    between atoms: _120  and  _123
REMARK   53  A    between atoms: _123  and  _124
REMARK   54  A    between atoms: _124  and  _125
REMARK   55  A    between atoms: _125  and  _126
REMARK   56  A    between atoms: _126  and  _127
REMARK   57  A    between atoms: _131  and  _133
REMARK   58  A    between atoms: _133  and  _134
REMARK   59  A    between atoms: _133  and  _136
REMARK   60  A    between atoms: _136  and  _137
REMARK   61  A    between atoms: _137  and  _138
REMARK   62  A    between atoms: _140  and  _142
REMARK   63  A    between atoms: _142  and  _143
REMARK   64  A    between atoms: _142  and  _145
REMARK   65  A    between atoms: _145  and  _146
REMARK   66  A    between atoms: _149  and  _151
REMARK   67  A    between atoms: _151  and  _152
REMARK   68  A    between atoms: _154  and  _156
REMARK   69  A    between atoms: _156  and  _157
REMARK   70  A    between atoms: _159  and  _161
REMARK   71  A    between atoms: _161  and  _162
REMARK   72  A    between atoms: _161  and  _164
REMARK   73  A    between atoms: _164  and  _165
REMARK   74  A    between atoms: _168  and  _170
REMARK   75  A    between atoms: _170  and  _171
REMARK   76  A    between atoms: _173  and  _175
REMARK   77  A    between atoms: _175  and  _176
REMARK   78  A    between atoms: _178  and  _180
REMARK   79  A    between atoms: _180  and  _181
REMARK   80  A    between atoms: _180  and  _183
REMARK   81  A    between atoms: _183  and  _184
REMARK   82  A    between atoms: _190  and  _192
REMARK   83  A    between atoms: _192  and  _193
REMARK   84  A    between atoms: _192  and  _195
REMARK   85  A    between atoms: _195  and  _196
REMARK   86  A    between atoms: _199  and  _201
REMARK   87  A    between atoms: _201  and  _202
REMARK   88  A    between atoms: _201  and  _204
REMARK   89  A    between atoms: _207  and  _209
REMARK   90  A    between atoms: _209  and  _210
REMARK   91  A    between atoms: _209  and  _212
REMARK   92  A    between atoms: _212  and  _213
REMARK   93  A    between atoms: _216  and  _218
REMARK   94  A    between atoms: _218  and  _219
REMARK   95  A    between atoms: _218  and  _221
REMARK   96  A    between atoms: _221  and  _222
REMARK   97  A    between atoms: _226  and  _227
REMARK   98  A    between atoms: _232  and  _234
REMARK   99  A    between atoms: _234  and  _235
REMARK  100  A    between atoms: _234  and  _237
REMARK  101  A    between atoms: _240  and  _242
REMARK  102  A    between atoms: _242  and  _243
REMARK  103  A    between atoms: _242  and  _245
REMARK  104  A    between atoms: _245  and  _246
REMARK  105  A    between atoms: _251  and  _253
REMARK  106  A    between atoms: _253  and  _254
REMARK  107  A    between atoms: _253  and  _256
REMARK  108  A    between atoms: _256  and  _257
REMARK  109  A    between atoms: _260  and  _262
REMARK  110  A    between atoms: _262  and  _263
REMARK  111  A    between atoms: _262  and  _265
REMARK  112  A    between atoms: _265  and  _266
REMARK  113  A    between atoms: _269  and  _271
REMARK  114  A    between atoms: _271  and  _272
REMARK  115  A    between atoms: _274  and  _276
REMARK  116  A    between atoms: _276  and  _277
REMARK  117  A    between atoms: _276  and  _279
REMARK  118  A    between atoms: _279  and  _280
REMARK  119  A    between atoms: _280  and  _281
REMARK  120  A    between atoms: _281  and  _282
REMARK  121  A    between atoms: _291  and  _293
REMARK  122  A    between atoms: _293  and  _294
REMARK  123  A    between atoms: _293  and  _296
REMARK  124  A    between atoms: _296  and  _297
REMARK  125  A    between atoms: _302  and  _304
REMARK  126  A    between atoms: _304  and  _305
REMARK  127  A    between atoms: _304  and  _307
REMARK  128  A    between atoms: _307  and  _308
REMARK  129  A    between atoms: _308  and  _309
REMARK  130  A    between atoms: _309  and  _310
REMARK  131  A    between atoms: _319  and  _321
REMARK  132  A    between atoms: _321  and  _322
REMARK  133  A    between atoms: _321  and  _324
REMARK  134  A    between atoms: _324  and  _325
REMARK  135  A    between atoms: _328  and  _330
REMARK  136  A    between atoms: _330  and  _331
REMARK  137  A    between atoms: _330  and  _333
REMARK  138  A    between atoms: _333  and  _334
REMARK  139  A    between atoms: _337  and  _339
REMARK  140  A    between atoms: _339  and  _340
REMARK  141  A    between atoms: _339  and  _342
REMARK  142  A    between atoms: _342  and  _343
REMARK  143  A    between atoms: _346  and  _348
REMARK  144  A    between atoms: _348  and  _349
REMARK  145  A    between atoms: _348  and  _351
REMARK  146  A    between atoms: _351  and  _352
REMARK  147  A    between atoms: _355  and  _357
REMARK  148  A    between atoms: _357  and  _358
REMARK  149  A    between atoms: _357  and  _360
REMARK  150  A    between atoms: _360  and  _361
REMARK  151  A    between atoms: _364  and  _366
REMARK  152  A    between atoms: _366  and  _367
REMARK  153  A    between atoms: _369  and  _371
REMARK  154  A    between atoms: _371  and  _372
REMARK  155  A    between atoms: _375  and  _377
REMARK  156  A    between atoms: _377  and  _378
REMARK  157  A    between atoms: _377  and  _380
REMARK  158  A    between atoms: _380  and  _381
REMARK  159  A    between atoms: _384  and  _386
REMARK  160  A    between atoms: _386  and  _387
REMARK  161  A    between atoms: _386  and  _389
REMARK  162  A    between atoms: _389  and  _390
REMARK  163  A    between atoms: _393  and  _395
REMARK  164  A    between atoms: _395  and  _396
REMARK  165  A    between atoms: _395  and  _398
REMARK  166  A    between atoms: _398  and  _399
REMARK  167  A    between atoms: _402  and  _404
REMARK  168  A    between atoms: _404  and  _405
REMARK  169  A    between atoms: _404  and  _407
REMARK  170  A    between atoms: _410  and  _412
REMARK  171  A    between atoms: _412  and  _413
REMARK  172  A    between atoms: _412  and  _415
REMARK  173  A    between atoms: _415  and  _416
REMARK  174  A    between atoms: _419  and  _421
REMARK  175  A    between atoms: _421  and  _422
REMARK  176  A    between atoms: _421  and  _424
REMARK  177  A    between atoms: _424  and  _425
REMARK  178  A    between atoms: _425  and  _426
REMARK  179  A    between atoms: _426  and  _427
REMARK  180  A    between atoms: _427  and  _428
REMARK  181  A    between atoms: _432  and  _434
REMARK  182  A    between atoms: _434  and  _435
REMARK  183  A    between atoms: _434  and  _437
REMARK  184  A    between atoms: _437  and  _438
REMARK  185  A    between atoms: _438  and  _439
REMARK  186  A    between atoms: _441  and  _443
REMARK  187  A    between atoms: _443  and  _444
REMARK  188  A    between atoms: _443  and  _446
REMARK  189  A    between atoms: _446  and  _447
REMARK  190  A    between atoms: _450  and  _452
REMARK  191  A    between atoms: _452  and  _453
REMARK  192  A    between atoms: _455  and  _457
REMARK  193  A    between atoms: _457  and  _458
REMARK  194  A    between atoms: _460  and  _462
REMARK  195  A    between atoms: _462  and  _463
REMARK  196  A    between atoms: _462  and  _465
REMARK  197  A    between atoms: _465  and  _466
REMARK  198  A    between atoms: _469  and  _471
REMARK  199  A    between atoms: _471  and  _472
REMARK  200  A    between atoms: _474  and  _476
REMARK  201  A    between atoms: _476  and  _477
REMARK  202  A    between atoms: _479  and  _481
REMARK  203  A    between atoms: _481  and  _482
REMARK  204  A    between atoms: _481  and  _484
REMARK  205  A    between atoms: _484  and  _485
REMARK  206  A    between atoms: _491  and  _493
REMARK  207  A    between atoms: _493  and  _494
REMARK  208  A    between atoms: _493  and  _496
REMARK  209  A    between atoms: _496  and  _497
REMARK  210  A    between atoms: _500  and  _502
REMARK  211  A    between atoms: _502  and  _503
REMARK  212  A    between atoms: _502  and  _505
REMARK  213  A    between atoms: _508  and  _510
REMARK  214  A    between atoms: _510  and  _511
REMARK  215  A    between atoms: _510  and  _513
REMARK  216  A    between atoms: _513  and  _514
REMARK  217  A    between atoms: _517  and  _519
REMARK  218  A    between atoms: _519  and  _520
REMARK  219  A    between atoms: _519  and  _522
REMARK  220  A    between atoms: _522  and  _523
REMARK  221  A    between atoms: _527  and  _528
REMARK  222  A    between atoms: _533  and  _535
REMARK  223  A    between atoms: _535  and  _536
REMARK  224  A    between atoms: _535  and  _538
REMARK  225  A    between atoms: _541  and  _543
REMARK  226  A    between atoms: _543  and  _544
REMARK  227  A    between atoms: _543  and  _546
REMARK  228  A    between atoms: _546  and  _547
REMARK  229  A    between atoms: _552  and  _554
REMARK  230  A    between atoms: _554  and  _555
REMARK  231  A    between atoms: _554  and  _557
REMARK  232  A    between atoms: _557  and  _558
REMARK  233  A    between atoms: _561  and  _563
REMARK  234  A    between atoms: _563  and  _564
REMARK  235  A    between atoms: _563  and  _566
REMARK  236  A    between atoms: _566  and  _567
REMARK  237  A    between atoms: _570  and  _572
REMARK  238  A    between atoms: _572  and  _573
REMARK  239  A    between atoms: _575  and  _577
REMARK  240  A    between atoms: _577  and  _578
REMARK  241  A    between atoms: _577  and  _580
REMARK  242  A    between atoms: _580  and  _581
REMARK  243  A    between atoms: _581  and  _582
REMARK  244  A    between atoms: _582  and  _583
REMARK  245  A    between atoms: _592  and  _594
REMARK  246  A    between atoms: _594  and  _595
REMARK  247  A    between atoms: _594  and  _597
REMARK  248  A    between atoms: _597  and  _598
REMARK                            x       y       z     vdW  Elec       q    Type
REMARK                         _______ _______ _______ _____ _____    ______ ____
ROOT
ATOM      1  O   HOH     1       3.435  26.181   7.375  0.00  0.00    +0.000 OA
ENDROOT
TORSDOF 0
REMARK  Name = ../refined-set-2016/1d4i/1d4i_pocket.pdb
REMARK  248 active torsions:
REMARK  status: ('A' for Active; 'I' for Inactive)
REMARK    1  A    between atoms: _1  and  _3
REMARK    2  A    between atoms: _3  and  _4
REMARK    3  A    between atoms: _3  and  _6
REMARK    4  A    between atoms: _6  and  _7
REMARK    5  A    between atoms: _7  and  _8
REMARK    6  A    between atoms: _8  and  _9
REMARK    7  A    between atoms: _18  and  _20
REMARK    8  A    between atoms: _20  and  _21
REMARK    9  A    between atoms: _20  and  _23
REMARK   10  A    between atoms: _23  and  _24
REMARK   11  A    between atoms: _27  and  _29
REMARK   12  A    between atoms: _29  and  _30
REMARK   13  A    between atoms: _29  and  _32
REMARK   14  A    between atoms: _32  and  _33
REMARK   15  A    between atoms: _36  and  _38
REMARK   16  A    between atoms: _38  and  _39
REMARK   17  A    between atoms: _38  and  _41
REMARK   18  A    between atoms: _41  and  _42
REMARK   19  A    between atoms: _45  and  _47
REMARK   20  A    between atoms: _47  and  _48
REMARK   21  A    between atoms: _47  and  _50
REMARK   22  A    between atoms: _50  and  _51
REMARK   23  A    between atoms: _54  and  _56
REMARK   24  A    between atoms: _56  and  _57
REMARK   25  A    between atoms: _56  and  _59
REMARK   26  A    between atoms: _59  and  _60
REMARK   27  A    between atoms: _63  and  _65
REMARK   28  A    between atoms: _65  and  _66
REMARK   29  A    between atoms: _68  and  _70
REMARK   30  A    between atoms: _70  and  _71
REMARK   31  A    between atoms: _74  and  _76
REMARK   32  A    between atoms: _76  and  _77
REMARK   33  A    between atoms: _76  and  _79
REMARK   34  A    between atoms: _79  and  _80
REMARK   35  A    between atoms: _83  and  _85
REMARK   36  A    between atoms: _85  and  _86
REMARK   37  A    between atoms: _85  and  _88
REMARK   38  A    between atoms: _88  and  _89
REMARK   39  A    between atoms: _92  and  _94
REMARK   40  A    between atoms: _94  and  _95
REMARK   41  A    between atoms: _94  and  _97
REMARK   42  A    between atoms: _97  and  _98
REMARK   43  A    between atoms: _101  and  _103
REMARK   44  A    between atoms: _103  and  _104
REMARK   45  A    between atoms: _103  and  _106
REMARK   46  A    between atoms: _109  and  _111
REMARK   47  A    between atoms: _111  and  _112
REMARK   48  A    between atoms: _111  and  _114
REMARK   49  A    between atoms: _114  and  _115
REMARK   50  A    between atoms: _118  and  _120
REMARK   51  A    between atoms: _120  and  _121
REMARK   52  A    between atoms: _120  and  _123
REMARK   53  A    between atoms: _123  and  _124
REMARK   54  A    between atoms: _124  and  _125
REMARK   55  A    between atoms: _125  and  _126
REMARK   56  A    between atoms: _126  and  _127
REMARK   57  A    between atoms: _131  and  _133
REMARK   58  A    between atoms: _133  and  _134
REMARK   59  A    between atoms: _133  and  _136
REMARK   60  A    between atoms: _136  and  _137
REMARK   61  A    between atoms: _137  and  _138
REMARK   62  A    between atoms: _140  and  _142
REMARK   63  A    between atoms: _142  and  _143
REMARK   64  A    between atoms: _142  and  _145
REMARK   65  A    between atoms: _145  and  _146
REMARK   66  A    between atoms: _149  and  _151
REMARK   67  A    between atoms: _151  and  _152
REMARK   68  A    between atoms: _154  and  _156
REMARK   69  A    between atoms: _156  and  _157
REMARK   70  A    between atoms: _159  and  _161
REMARK   71  A    between atoms: _161  and  _162
REMARK   72  A    between atoms: _161  and  _164
REMARK   73  A    between atoms: _164  and  _165
REMARK   74  A    between atoms: _168  and  _170
REMARK   75  A    between atoms: _170  and  _171
REMARK   76  A    between atoms: _173  and  _175
REMARK   77  A    between atoms: _175  and  _176
REMARK   78  A    between atoms: _178  and  _180
REMARK   79  A    between atoms: _180  and  _181
REMARK   80  A    between atoms: _180  and  _183
REMARK   81  A    between atoms: _183  and  _184
REMARK   82  A    between atoms: _190  and  _192
REMARK   83  A    between atoms: _192  and  _193
REMARK   84  A    between atoms: _192  and  _195
REMARK   85  A    between atoms: _195  and  _196
REMARK   86  A    between atoms: _199  and  _201
REMARK   87  A    between atoms: _201  and  _202
REMARK   88  A    between atoms: _201  and  _204
REMARK   89  A    between atoms: _207  and  _209
REMARK   90  A    between atoms: _209  and  _210
REMARK   91  A    between atoms: _209  and  _212
REMARK   92  A    between atoms: _212  and  _213
REMARK   93  A    between atoms: _216  and  _218
REMARK   94  A    between atoms: _218  and  _219
REMARK   95  A    between atoms: _218  and  _221
REMARK   96  A    between atoms: _221  and  _222
REMARK   97  A    between atoms: _226  and  _227
REMARK   98  A    between atoms: _232  and  _234
REMARK   99  A    between atoms: _234  and  _235
REMARK  100  A    between atoms: _234  and  _237
REMARK  101  A    between atoms: _240  and  _242
REMARK  102  A    between atoms: _242  and  _243
REMARK  103  A    between atoms: _242  and  _245
REMARK  104  A    between atoms: _245  and  _246
REMARK  105  A    between atoms: _251  and  _253
REMARK  106  A    between atoms: _253  and  _254
REMARK  107  A    between atoms: _253  and  _256
REMARK  108  A    between atoms: _256  and  _257
REMARK  109  A    between atoms: _260  and  _262
REMARK  110  A    between atoms: _262  and  _263
REMARK  111  A    between atoms: _262  and  _265
REMARK  112  A    between atoms: _265  and  _266
REMARK  113  A    between atoms: _269  and  _271
REMARK  114  A    between atoms: _271  and  _272
REMARK  115  A    between atoms: _274  and  _276
REMARK  116  A    between atoms: _276  and  _277
REMARK  117  A    between atoms: _276  and  _279
REMARK  118  A    between atoms: _279  and  _280
REMARK  119  A    between atoms: _280  and  _281
REMARK  120  A    between atoms: _281  and  _282
REMARK  121  A    between atoms: _291  and  _293
REMARK  122  A    between atoms: _293  and  _294
REMARK  123  A    between atoms: _293  and  _296
REMARK  124  A    between atoms: _296  and  _297
REMARK  125  A    between atoms: _302  and  _304
REMARK  126  A    between atoms: _304  and  _305
REMARK  127  A    between atoms: _304  and  _307
REMARK  128  A    between atoms: _307  and  _308
REMARK  129  A    between atoms: _308  and  _309
REMARK  130  A    between atoms: _309  and  _310
REMARK  131  A    between atoms: _319  and  _321
REMARK  132  A    between atoms: _321  and  _322
REMARK  133  A    between atoms: _321  and  _324
REMARK  134  A    between atoms: _324  and  _325
REMARK  135  A    between atoms: _328  and  _330
REMARK  136  A    between atoms: _330  and  _331
REMARK  137  A    between atoms: _330  and  _333
REMARK  138  A    between atoms: _333  and  _334
REMARK  139  A    between atoms: _337  and  _339
REMARK  140  A    between atoms: _339  and  _340
REMARK  141  A    between atoms: _339  and  _342
REMARK  142  A    between atoms: _342  and  _343
REMARK  143  A    between atoms: _346  and  _348
REMARK  144  A    between atoms: _348  and  _349
REMARK  145  A    between atoms: _348  and  _351
REMARK  146  A    between atoms: _351  and  _352
REMARK  147  A    between atoms: _355  and  _357
REMARK  148  A    between atoms: _357  and  _358
REMARK  149  A    between atoms: _357  and  _360
REMARK  150  A    between atoms: _360  and  _361
REMARK  151  A    between atoms: _364  and  _366
REMARK  152  A    between atoms: _366  and  _367
REMARK  153  A    between atoms: _369  and  _371
REMARK  154  A    between atoms: _371  and  _372
REMARK  155  A    between atoms: _375  and  _377
REMARK  156  A    between atoms: _377  and  _378
REMARK  157  A    between atoms: _377  and  _380
REMARK  158  A    between atoms: _380  and  _381
REMARK  159  A    between atoms: _384  and  _386
REMARK  160  A    between atoms: _386  and  _387
REMARK  161  A    between atoms: _386  and  _389
REMARK  162  A    between atoms: _389  and  _390
REMARK  163  A    between atoms: _393  and  _395
REMARK  164  A    between atoms: _395  and  _396
REMARK  165  A    between atoms: _395  and  _398
REMARK  166  A    between atoms: _398  and  _399
REMARK  167  A    between atoms: _402  and  _404
REMARK  168  A    between atoms: _404  and  _405
REMARK  169  A    between atoms: _404  and  _407
REMARK  170  A    between atoms: _410  and  _412
REMARK  171  A    between atoms: _412  and  _413
REMARK  172  A    between atoms: _412  and  _415
REMARK  173  A    between atoms: _415  and  _416
REMARK  174  A    between atoms: _419  and  _421
REMARK  175  A    between atoms: _421  and  _422
REMARK  176  A    between atoms: _421  and  _424
REMARK  177  A    between atoms: _424  and  _425
REMARK  178  A    between atoms: _425  and  _426
REMARK  179  A    between atoms: _426  and  _427
REMARK  180  A    between atoms: _427  and  _428
REMARK  181  A    between atoms: _432  and  _434
REMARK  182  A    between atoms: _434  and  _435
REMARK  183  A    between atoms: _434  and  _437
REMARK  184  A    between atoms: _437  and  _438
REMARK  185  A    between atoms: _438  and  _439
REMARK  186  A    between atoms: _441  and  _443
REMARK  187  A    between atoms: _443  and  _444
REMARK  188  A    between atoms: _443  and  _446
REMARK  189  A    between atoms: _446  and  _447
REMARK  190  A    between atoms: _450  and  _452
REMARK  191  A    between atoms: _452  and  _453
REMARK  192  A    between atoms: _455  and  _457
REMARK  193  A    between atoms: _457  and  _458
REMARK  194  A    between atoms: _460  and  _462
REMARK  195  A    between atoms: _462  and  _463
REMARK  196  A    between atoms: _462  and  _465
REMARK  197  A    between atoms: _465  and  _466
REMARK  198  A    between atoms: _469  and  _471
REMARK  199  A    between atoms: _471  and  _472
REMARK  200  A    between atoms: _474  and  _476
REMARK  201  A    between atoms: _476  and  _477
REMARK  202  A    between atoms: _479  and  _481
REMARK  203  A    between atoms: _481  and  _482
REMARK  204  A    between atoms: _481  and  _484
REMARK  205  A    between atoms: _484  and  _485
REMARK  206  A    between atoms: _491  and  _493
REMARK  207  A    between atoms: _493  and  _494
REMARK  208  A    between atoms: _493  and  _496
REMARK  209  A    between atoms: _496  and  _497
REMARK  210  A    between atoms: _500  and  _502
REMARK  211  A    between atoms: _502  and  _503
REMARK  212  A    between atoms: _502  and  _505
REMARK  213  A    between atoms: _508  and  _510
REMARK  214  A    between atoms: _510  and  _511
REMARK  215  A    between atoms: _510  and  _513
REMARK  216  A    between atoms: _513  and  _514
REMARK  217  A    between atoms: _517  and  _519
REMARK  218  A    between atoms: _519  and  _520
REMARK  219  A    between atoms: _519  and  _522
REMARK  220  A    between atoms: _522  and  _523
REMARK  221  A    between atoms: _527  and  _528
REMARK  222  A    between atoms: _533  and  _535
REMARK  223  A    between atoms: _535  and  _536
REMARK  224  A    between atoms: _535  and  _538
REMARK  225  A    between atoms: _541  and  _543
REMARK  226  A    between atoms: _543  and  _544
REMARK  227  A    between atoms: _543  and  _546
REMARK  228  A    between atoms: _546  and  _547
REMARK  229  A    between atoms: _552  and  _554
REMARK  230  A    between atoms: _554  and  _555
REMARK  231  A    between atoms: _554  and  _557
REMARK  232  A    between atoms: _557  and  _558
REMARK  233  A    between atoms: _561  and  _563
REMARK  234  A    between atoms: _563  and  _564
REMARK  235  A    between atoms: _563  and  _566
REMARK  236  A    between atoms: _566  and  _567
REMARK  237  A    between atoms: _570  and  _572
REMARK  238  A    between atoms: _572  and  _573
REMARK  239  A    between atoms: _575  and  _577
REMARK  240  A    between atoms: _577  and  _578
REMARK  241  A    between atoms: _577  and  _580
REMARK  242  A    between atoms: _580  and  _581
REMARK  243  A    between atoms: _581  and  _582
REMARK  244  A    between atoms: _582  and  _583
REMARK  245  A    between atoms: _592  and  _594
REMARK  246  A    between atoms: _594  and  _595
REMARK  247  A    between atoms: _594  and  _597
REMARK  248  A    between atoms: _597  and  _598
REMARK                            x       y       z     vdW  Elec       q    Type
REMARK                         _______ _______ _______ _____ _____    ______ ____
ROOT
ATOM      1  O   HOH     1       4.455  24.912   5.155  0.00  0.00    +0.000 OA
ENDROOT
TORSDOF 0
REMARK  Name = ../refined-set-2016/1d4i/1d4i_pocket.pdb
REMARK  248 active torsions:
REMARK  status: ('A' for Active; 'I' for Inactive)
REMARK    1  A    between atoms: _1  and  _3
REMARK    2  A    between atoms: _3  and  _4
REMARK    3  A    between atoms: _3  and  _6
REMARK    4  A    between atoms: _6  and  _7
REMARK    5  A    between atoms: _7  and  _8
REMARK    6  A    between atoms: _8  and  _9
REMARK    7  A    between atoms: _18  and  _20
REMARK    8  A    between atoms: _20  and  _21
REMARK    9  A    between atoms: _20  and  _23
REMARK   10  A    between atoms: _23  and  _24
REMARK   11  A    between atoms: _27  and  _29
REMARK   12  A    between atoms: _29  and  _30
REMARK   13  A    between atoms: _29  and  _32
REMARK   14  A    between atoms: _32  and  _33
REMARK   15  A    between atoms: _36  and  _38
REMARK   16  A    between atoms: _38  and  _39
REMARK   17  A    between atoms: _38  and  _41
REMARK   18  A    between atoms: _41  and  _42
REMARK   19  A    between atoms: _45  and  _47
REMARK   20  A    between atoms: _47  and  _48
REMARK   21  A    between atoms: _47  and  _50
REMARK   22  A    between atoms: _50  and  _51
REMARK   23  A    between atoms: _54  and  _56
REMARK   24  A    between atoms: _56  and  _57
REMARK   25  A    between atoms: _56  and  _59
REMARK   26  A    between atoms: _59  and  _60
REMARK   27  A    between atoms: _63  and  _65
REMARK   28  A    between atoms: _65  and  _66
REMARK   29  A    between atoms: _68  and  _70
REMARK   30  A    between atoms: _70  and  _71
REMARK   31  A    between atoms: _74  and  _76
REMARK   32  A    between atoms: _76  and  _77
REMARK   33  A    between atoms: _76  and  _79
REMARK   34  A    between atoms: _79  and  _80
REMARK   35  A    between atoms: _83  and  _85
REMARK   36  A    between atoms: _85  and  _86
REMARK   37  A    between atoms: _85  and  _88
REMARK   38  A    between atoms: _88  and  _89
REMARK   39  A    between atoms: _92  and  _94
REMARK   40  A    between atoms: _94  and  _95
REMARK   41  A    between atoms: _94  and  _97
REMARK   42  A    between atoms: _97  and  _98
REMARK   43  A    between atoms: _101  and  _103
REMARK   44  A    between atoms: _103  and  _104
REMARK   45  A    between atoms: _103  and  _106
REMARK   46  A    between atoms: _109  and  _111
REMARK   47  A    between atoms: _111  and  _112
REMARK   48  A    between atoms: _111  and  _114
REMARK   49  A    between atoms: _114  and  _115
REMARK   50  A    between atoms: _118  and  _120
REMARK   51  A    between atoms: _120  and  _121
REMARK   52  A    between atoms: _120  and  _123
REMARK   53  A    between atoms: _123  and  _124
REMARK   54  A    between atoms: _124  and  _125
REMARK   55  A    between atoms: _125  and  _126
REMARK   56  A    between atoms: _126  and  _127
REMARK   57  A    between atoms: _131  and  _133
REMARK   58  A    between atoms: _133  and  _134
REMARK   59  A    between atoms: _133  and  _136
REMARK   60  A    between atoms: _136  and  _137
REMARK   61  A    between atoms: _137  and  _138
REMARK   62  A    between atoms: _140  and  _142
REMARK   63  A    between atoms: _142  and  _143
REMARK   64  A    between atoms: _142  and  _145
REMARK   65  A    between atoms: _145  and  _146
REMARK   66  A    between atoms: _149  and  _151
REMARK   67  A    between atoms: _151  and  _152
REMARK   68  A    between atoms: _154  and  _156
REMARK   69  A    between atoms: _156  and  _157
REMARK   70  A    between atoms: _159  and  _161
REMARK   71  A    between atoms: _161  and  _162
REMARK   72  A    between atoms: _161  and  _164
REMARK   73  A    between atoms: _164  and  _165
REMARK   74  A    between atoms: _168  and  _170
REMARK   75  A    between atoms: _170  and  _171
REMARK   76  A    between atoms: _173  and  _175
REMARK   77  A    between atoms: _175  and  _176
REMARK   78  A    between atoms: _178  and  _180
REMARK   79  A    between atoms: _180  and  _181
REMARK   80  A    between atoms: _180  and  _183
REMARK   81  A    between atoms: _183  and  _184
REMARK   82  A    between atoms: _190  and  _192
REMARK   83  A    between atoms: _192  and  _193
REMARK   84  A    between atoms: _192  and  _195
REMARK   85  A    between atoms: _195  and  _196
REMARK   86  A    between atoms: _199  and  _201
REMARK   87  A    between atoms: _201  and  _202
REMARK   88  A    between atoms: _201  and  _204
REMARK   89  A    between atoms: _207  and  _209
REMARK   90  A    between atoms: _209  and  _210
REMARK   91  A    between atoms: _209  and  _212
REMARK   92  A    between atoms: _212  and  _213
REMARK   93  A    between atoms: _216  and  _218
REMARK   94  A    between atoms: _218  and  _219
REMARK   95  A    between atoms: _218  and  _221
REMARK   96  A    between atoms: _221  and  _222
REMARK   97  A    between atoms: _226  and  _227
REMARK   98  A    between atoms: _232  and  _234
REMARK   99  A    between atoms: _234  and  _235
REMARK  100  A    between atoms: _234  and  _237
REMARK  101  A    between atoms: _240  and  _242
REMARK  102  A    between atoms: _242  and  _243
REMARK  103  A    between atoms: _242  and  _245
REMARK  104  A    between atoms: _245  and  _246
REMARK  105  A    between atoms: _251  and  _253
REMARK  106  A    between atoms: _253  and  _254
REMARK  107  A    between atoms: _253  and  _256
REMARK  108  A    between atoms: _256  and  _257
REMARK  109  A    between atoms: _260  and  _262
REMARK  110  A    between atoms: _262  and  _263
REMARK  111  A    between atoms: _262  and  _265
REMARK  112  A    between atoms: _265  and  _266
REMARK  113  A    between atoms: _269  and  _271
REMARK  114  A    between atoms: _271  and  _272
REMARK  115  A    between atoms: _274  and  _276
REMARK  116  A    between atoms: _276  and  _277
REMARK  117  A    between atoms: _276  and  _279
REMARK  118  A    between atoms: _279  and  _280
REMARK  119  A    between atoms: _280  and  _281
REMARK  120  A    between atoms: _281  and  _282
REMARK  121  A    between atoms: _291  and  _293
REMARK  122  A    between atoms: _293  and  _294
REMARK  123  A    between atoms: _293  and  _296
REMARK  124  A    between atoms: _296  and  _297
REMARK  125  A    between atoms: _302  and  _304
REMARK  126  A    between atoms: _304  and  _305
REMARK  127  A    between atoms: _304  and  _307
REMARK  128  A    between atoms: _307  and  _308
REMARK  129  A    between atoms: _308  and  _309
REMARK  130  A    between atoms: _309  and  _310
REMARK  131  A    between atoms: _319  and  _321
REMARK  132  A    between atoms: _321  and  _322
REMARK  133  A    between atoms: _321  and  _324
REMARK  134  A    between atoms: _324  and  _325
REMARK  135  A    between atoms: _328  and  _330
REMARK  136  A    between atoms: _330  and  _331
REMARK  137  A    between atoms: _330  and  _333
REMARK  138  A    between atoms: _333  and  _334
REMARK  139  A    between atoms: _337  and  _339
REMARK  140  A    between atoms: _339  and  _340
REMARK  141  A    between atoms: _339  and  _342
REMARK  142  A    between atoms: _342  and  _343
REMARK  143  A    between atoms: _346  and  _348
REMARK  144  A    between atoms: _348  and  _349
REMARK  145  A    between atoms: _348  and  _351
REMARK  146  A    between atoms: _351  and  _352
REMARK  147  A    between atoms: _355  and  _357
REMARK  148  A    between atoms: _357  and  _358
REMARK  149  A    between atoms: _357  and  _360
REMARK  150  A    between atoms: _360  and  _361
REMARK  151  A    between atoms: _364  and  _366
REMARK  152  A    between atoms: _366  and  _367
REMARK  153  A    between atoms: _369  and  _371
REMARK  154  A    between atoms: _371  and  _372
REMARK  155  A    between atoms: _375  and  _377
REMARK  156  A    between atoms: _377  and  _378
REMARK  157  A    between atoms: _377  and  _380
REMARK  158  A    between atoms: _380  and  _381
REMARK  159  A    between atoms: _384  and  _386
REMARK  160  A    between atoms: _386  and  _387
REMARK  161  A    between atoms: _386  and  _389
REMARK  162  A    between atoms: _389  and  _390
REMARK  163  A    between atoms: _393  and  _395
REMARK  164  A    between atoms: _395  and  _396
REMARK  165  A    between atoms: _395  and  _398
REMARK  166  A    between atoms: _398  and  _399
REMARK  167  A    between atoms: _402  and  _404
REMARK  168  A    between atoms: _404  and  _405
REMARK  169  A    between atoms: _404  and  _407
REMARK  170  A    between atoms: _410  and  _412
REMARK  171  A    between atoms: _412  and  _413
REMARK  172  A    between atoms: _412  and  _415
REMARK  173  A    between atoms: _415  and  _416
REMARK  174  A    between atoms: _419  and  _421
REMARK  175  A    between atoms: _421  and  _422
REMARK  176  A    between atoms: _421  and  _424
REMARK  177  A    between atoms: _424  and  _425
REMARK  178  A    between atoms: _425  and  _426
REMARK  179  A    between atoms: _426  and  _427
REMARK  180  A    between atoms: _427  and  _428
REMARK  181  A    between atoms: _432  and  _434
REMARK  182  A    between atoms: _434  and  _435
REMARK  183  A    between atoms: _434  and  _437
REMARK  184  A    between atoms: _437  and  _438
REMARK  185  A    between atoms: _438  and  _439
REMARK  186  A    between atoms: _441  and  _443
REMARK  187  A    between atoms: _443  and  _444
REMARK  188  A    between atoms: _443  and  _446
REMARK  189  A    between atoms: _446  and  _447
REMARK  190  A    between atoms: _450  and  _452
REMARK  191  A    between atoms: _452  and  _453
REMARK  192  A    between atoms: _455  and  _457
REMARK  193  A    between atoms: _457  and  _458
REMARK  194  A    between atoms: _460  and  _462
REMARK  195  A    between atoms: _462  and  _463
REMARK  196  A    between atoms: _462  and  _465
REMARK  197  A    between atoms: _465  and  _466
REMARK  198  A    between atoms: _469  and  _471
REMARK  199  A    between atoms: _471  and  _472
REMARK  200  A    between atoms: _474  and  _476
REMARK  201  A    between atoms: _476  and  _477
REMARK  202  A    between atoms: _479  and  _481
REMARK  203  A    between atoms: _481  and  _482
REMARK  204  A    between atoms: _481  and  _484
REMARK  205  A    between atoms: _484  and  _485
REMARK  206  A    between atoms: _491  and  _493
REMARK  207  A    between atoms: _493  and  _494
REMARK  208  A    between atoms: _493  and  _496
REMARK  209  A    between atoms: _496  and  _497
REMARK  210  A    between atoms: _500  and  _502
REMARK  211  A    between atoms: _502  and  _503
REMARK  212  A    between atoms: _502  and  _505
REMARK  213  A    between atoms: _508  and  _510
REMARK  214  A    between atoms: _510  and  _511
REMARK  215  A    between atoms: _510  and  _513
REMARK  216  A    between atoms: _513  and  _514
REMARK  217  A    between atoms: _517  and  _519
REMARK  218  A    between atoms: _519  and  _520
REMARK  219  A    between atoms: _519  and  _522
REMARK  220  A    between atoms: _522  and  _523
REMARK  221  A    between atoms: _527  and  _528
REMARK  222  A    between atoms: _533  and  _535
REMARK  223  A    between atoms: _535  and  _536
REMARK  224  A    between atoms: _535  and  _538
REMARK  225  A    between atoms: _541  and  _543
REMARK  226  A    between atoms: _543  and  _544
REMARK  227  A    between atoms: _543  and  _546
REMARK  228  A    between atoms: _546  and  _547
REMARK  229  A    between atoms: _552  and  _554
REMARK  230  A    between atoms: _554  and  _555
REMARK  231  A    between atoms: _554  and  _557
REMARK  232  A    between atoms: _557  and  _558
REMARK  233  A    between atoms: _561  and  _563
REMARK  234  A    between atoms: _563  and  _564
REMARK  235  A    between atoms: _563  and  _566
REMARK  236  A    between atoms: _566  and  _567
REMARK  237  A    between atoms: _570  and  _572
REMARK  238  A    between atoms: _572  and  _573
REMARK  239  A    between atoms: _575  and  _577
REMARK  240  A    between atoms: _577  and  _578
REMARK  241  A    between atoms: _577  and  _580
REMARK  242  A    between atoms: _580  and  _581
REMARK  243  A    between atoms: _581  and  _582
REMARK  244  A    between atoms: _582  and  _583
REMARK  245  A    between atoms: _592  and  _594
REMARK  246  A    between atoms: _594  and  _595
REMARK  247  A    between atoms: _594  and  _597
REMARK  248  A    between atoms: _597  and  _598
REMARK                            x       y       z     vdW  Elec       q    Type
REMARK                         _______ _______ _______ _____ _____    ______ ____
ROOT
ATOM      1  O   HOH     1      11.492  21.030   6.645  0.00  0.00    +0.000 OA
ENDROOT
TORSDOF 0
REMARK  Name = ../refined-set-2016/1d4i/1d4i_pocket.pdb
REMARK  248 active torsions:
REMARK  status: ('A' for Active; 'I' for Inactive)
REMARK    1  A    between atoms: _1  and  _3
REMARK    2  A    between atoms: _3  and  _4
REMARK    3  A    between atoms: _3  and  _6
REMARK    4  A    between atoms: _6  and  _7
REMARK    5  A    between atoms: _7  and  _8
REMARK    6  A    between atoms: _8  and  _9
REMARK    7  A    between atoms: _18  and  _20
REMARK    8  A    between atoms: _20  and  _21
REMARK    9  A    between atoms: _20  and  _23
REMARK   10  A    between atoms: _23  and  _24
REMARK   11  A    between atoms: _27  and  _29
REMARK   12  A    between atoms: _29  and  _30
REMARK   13  A    between atoms: _29  and  _32
REMARK   14  A    between atoms: _32  and  _33
REMARK   15  A    between atoms: _36  and  _38
REMARK   16  A    between atoms: _38  and  _39
REMARK   17  A    between atoms: _38  and  _41
REMARK   18  A    between atoms: _41  and  _42
REMARK   19  A    between atoms: _45  and  _47
REMARK   20  A    between atoms: _47  and  _48
REMARK   21  A    between atoms: _47  and  _50
REMARK   22  A    between atoms: _50  and  _51
REMARK   23  A    between atoms: _54  and  _56
REMARK   24  A    between atoms: _56  and  _57
REMARK   25  A    between atoms: _56  and  _59
REMARK   26  A    between atoms: _59  and  _60
REMARK   27  A    between atoms: _63  and  _65
REMARK   28  A    between atoms: _65  and  _66
REMARK   29  A    between atoms: _68  and  _70
REMARK   30  A    between atoms: _70  and  _71
REMARK   31  A    between atoms: _74  and  _76
REMARK   32  A    between atoms: _76  and  _77
REMARK   33  A    between atoms: _76  and  _79
REMARK   34  A    between atoms: _79  and  _80
REMARK   35  A    between atoms: _83  and  _85
REMARK   36  A    between atoms: _85  and  _86
REMARK   37  A    between atoms: _85  and  _88
REMARK   38  A    between atoms: _88  and  _89
REMARK   39  A    between atoms: _92  and  _94
REMARK   40  A    between atoms: _94  and  _95
REMARK   41  A    between atoms: _94  and  _97
REMARK   42  A    between atoms: _97  and  _98
REMARK   43  A    between atoms: _101  and  _103
REMARK   44  A    between atoms: _103  and  _104
REMARK   45  A    between atoms: _103  and  _106
REMARK   46  A    between atoms: _109  and  _111
REMARK   47  A    between atoms: _111  and  _112
REMARK   48  A    between atoms: _111  and  _114
REMARK   49  A    between atoms: _114  and  _115
REMARK   50  A    between atoms: _118  and  _120
REMARK   51  A    between atoms: _120  and  _121
REMARK   52  A    between atoms: _120  and  _123
REMARK   53  A    between atoms: _123  and  _124
REMARK   54  A    between atoms: _124  and  _125
REMARK   55  A    between atoms: _125  and  _126
REMARK   56  A    between atoms: _126  and  _127
REMARK   57  A    between atoms: _131  and  _133
REMARK   58  A    between atoms: _133  and  _134
REMARK   59  A    between atoms: _133  and  _136
REMARK   60  A    between atoms: _136  and  _137
REMARK   61  A    between atoms: _137  and  _138
REMARK   62  A    between atoms: _140  and  _142
REMARK   63  A    between atoms: _142  and  _143
REMARK   64  A    between atoms: _142  and  _145
REMARK   65  A    between atoms: _145  and  _146
REMARK   66  A    between atoms: _149  and  _151
REMARK   67  A    between atoms: _151  and  _152
REMARK   68  A    between atoms: _154  and  _156
REMARK   69  A    between atoms: _156  and  _157
REMARK   70  A    between atoms: _159  and  _161
REMARK   71  A    between atoms: _161  and  _162
REMARK   72  A    between atoms: _161  and  _164
REMARK   73  A    between atoms: _164  and  _165
REMARK   74  A    between atoms: _168  and  _170
REMARK   75  A    between atoms: _170  and  _171
REMARK   76  A    between atoms: _173  and  _175
REMARK   77  A    between atoms: _175  and  _176
REMARK   78  A    between atoms: _178  and  _180
REMARK   79  A    between atoms: _180  and  _181
REMARK   80  A    between atoms: _180  and  _183
REMARK   81  A    between atoms: _183  and  _184
REMARK   82  A    between atoms: _190  and  _192
REMARK   83  A    between atoms: _192  and  _193
REMARK   84  A    between atoms: _192  and  _195
REMARK   85  A    between atoms: _195  and  _196
REMARK   86  A    between atoms: _199  and  _201
REMARK   87  A    between atoms: _201  and  _202
REMARK   88  A    between atoms: _201  and  _204
REMARK   89  A    between atoms: _207  and  _209
REMARK   90  A    between atoms: _209  and  _210
REMARK   91  A    between atoms: _209  and  _212
REMARK   92  A    between atoms: _212  and  _213
REMARK   93  A    between atoms: _216  and  _218
REMARK   94  A    between atoms: _218  and  _219
REMARK   95  A    between atoms: _218  and  _221
REMARK   96  A    between atoms: _221  and  _222
REMARK   97  A    between atoms: _226  and  _227
REMARK   98  A    between atoms: _232  and  _234
REMARK   99  A    between atoms: _234  and  _235
REMARK  100  A    between atoms: _234  and  _237
REMARK  101  A    between atoms: _240  and  _242
REMARK  102  A    between atoms: _242  and  _243
REMARK  103  A    between atoms: _242  and  _245
REMARK  104  A    between atoms: _245  and  _246
REMARK  105  A    between atoms: _251  and  _253
REMARK  106  A    between atoms: _253  and  _254
REMARK  107  A    between atoms: _253  and  _256
REMARK  108  A    between atoms: _256  and  _257
REMARK  109  A    between atoms: _260  and  _262
REMARK  110  A    between atoms: _262  and  _263
REMARK  111  A    between atoms: _262  and  _265
REMARK  112  A    between atoms: _265  and  _266
REMARK  113  A    between atoms: _269  and  _271
REMARK  114  A    between atoms: _271  and  _272
REMARK  115  A    between atoms: _274  and  _276
REMARK  116  A    between atoms: _276  and  _277
REMARK  117  A    between atoms: _276  and  _279
REMARK  118  A    between atoms: _279  and  _280
REMARK  119  A    between atoms: _280  and  _281
REMARK  120  A    between atoms: _281  and  _282
REMARK  121  A    between atoms: _291  and  _293
REMARK  122  A    between atoms: _293  and  _294
REMARK  123  A    between atoms: _293  and  _296
REMARK  124  A    between atoms: _296  and  _297
REMARK  125  A    between atoms: _302  and  _304
REMARK  126  A    between atoms: _304  and  _305
REMARK  127  A    between atoms: _304  and  _307
REMARK  128  A    between atoms: _307  and  _308
REMARK  129  A    between atoms: _308  and  _309
REMARK  130  A    between atoms: _309  and  _310
REMARK  131  A    between atoms: _319  and  _321
REMARK  132  A    between atoms: _321  and  _322
REMARK  133  A    between atoms: _321  and  _324
REMARK  134  A    between atoms: _324  and  _325
REMARK  135  A    between atoms: _328  and  _330
REMARK  136  A    between atoms: _330  and  _331
REMARK  137  A    between atoms: _330  and  _333
REMARK  138  A    between atoms: _333  and  _334
REMARK  139  A    between atoms: _337  and  _339
REMARK  140  A    between atoms: _339  and  _340
REMARK  141  A    between atoms: _339  and  _342
REMARK  142  A    between atoms: _342  and  _343
REMARK  143  A    between atoms: _346  and  _348
REMARK  144  A    between atoms: _348  and  _349
REMARK  145  A    between atoms: _348  and  _351
REMARK  146  A    between atoms: _351  and  _352
REMARK  147  A    between atoms: _355  and  _357
REMARK  148  A    between atoms: _357  and  _358
REMARK  149  A    between atoms: _357  and  _360
REMARK  150  A    between atoms: _360  and  _361
REMARK  151  A    between atoms: _364  and  _366
REMARK  152  A    between atoms: _366  and  _367
REMARK  153  A    between atoms: _369  and  _371
REMARK  154  A    between atoms: _371  and  _372
REMARK  155  A    between atoms: _375  and  _377
REMARK  156  A    between atoms: _377  and  _378
REMARK  157  A    between atoms: _377  and  _380
REMARK  158  A    between atoms: _380  and  _381
REMARK  159  A    between atoms: _384  and  _386
REMARK  160  A    between atoms: _386  and  _387
REMARK  161  A    between atoms: _386  and  _389
REMARK  162  A    between atoms: _389  and  _390
REMARK  163  A    between atoms: _393  and  _395
REMARK  164  A    between atoms: _395  and  _396
REMARK  165  A    between atoms: _395  and  _398
REMARK  166  A    between atoms: _398  and  _399
REMARK  167  A    between atoms: _402  and  _404
REMARK  168  A    between atoms: _404  and  _405
REMARK  169  A    between atoms: _404  and  _407
REMARK  170  A    between atoms: _410  and  _412
REMARK  171  A    between atoms: _412  and  _413
REMARK  172  A    between atoms: _412  and  _415
REMARK  173  A    between atoms: _415  and  _416
REMARK  174  A    between atoms: _419  and  _421
REMARK  175  A    between atoms: _421  and  _422
REMARK  176  A    between atoms: _421  and  _424
REMARK  177  A    between atoms: _424  and  _425
REMARK  178  A    between atoms: _425  and  _426
REMARK  179  A    between atoms: _426  and  _427
REMARK  180  A    between atoms: _427  and  _428
REMARK  181  A    between atoms: _432  and  _434
REMARK  182  A    between atoms: _434  and  _435
REMARK  183  A    between atoms: _434  and  _437
REMARK  184  A    between atoms: _437  and  _438
REMARK  185  A    between atoms: _438  and  _439
REMARK  186  A    between atoms: _441  and  _443
REMARK  187  A    between atoms: _443  and  _444
REMARK  188  A    between atoms: _443  and  _446
REMARK  189  A    between atoms: _446  and  _447
REMARK  190  A    between atoms: _450  and  _452
REMARK  191  A    between atoms: _452  and  _453
REMARK  192  A    between atoms: _455  and  _457
REMARK  193  A    between atoms: _457  and  _458
REMARK  194  A    between atoms: _460  and  _462
REMARK  195  A    between atoms: _462  and  _463
REMARK  196  A    between atoms: _462  and  _465
REMARK  197  A    between atoms: _465  and  _466
REMARK  198  A    between atoms: _469  and  _471
REMARK  199  A    between atoms: _471  and  _472
REMARK  200  A    between atoms: _474  and  _476
REMARK  201  A    between atoms: _476  and  _477
REMARK  202  A    between atoms: _479  and  _481
REMARK  203  A    between atoms: _481  and  _482
REMARK  204  A    between atoms: _481  and  _484
REMARK  205  A    between atoms: _484  and  _485
REMARK  206  A    between atoms: _491  and  _493
REMARK  207  A    between atoms: _493  and  _494
REMARK  208  A    between atoms: _493  and  _496
REMARK  209  A    between atoms: _496  and  _497
REMARK  210  A    between atoms: _500  and  _502
REMARK  211  A    between atoms: _502  and  _503
REMARK  212  A    between atoms: _502  and  _505
REMARK  213  A    between atoms: _508  and  _510
REMARK  214  A    between atoms: _510  and  _511
REMARK  215  A    between atoms: _510  and  _513
REMARK  216  A    between atoms: _513  and  _514
REMARK  217  A    between atoms: _517  and  _519
REMARK  218  A    between atoms: _519  and  _520
REMARK  219  A    between atoms: _519  and  _522
REMARK  220  A    between atoms: _522  and  _523
REMARK  221  A    between atoms: _527  and  _528
REMARK  222  A    between atoms: _533  and  _535
REMARK  223  A    between atoms: _535  and  _536
REMARK  224  A    between atoms: _535  and  _538
REMARK  225  A    between atoms: _541  and  _543
REMARK  226  A    between atoms: _543  and  _544
REMARK  227  A    between atoms: _543  and  _546
REMARK  228  A    between atoms: _546  and  _547
REMARK  229  A    between atoms: _552  and  _554
REMARK  230  A    between atoms: _554  and  _555
REMARK  231  A    between atoms: _554  and  _557
REMARK  232  A    between atoms: _557  and  _558
REMARK  233  A    between atoms: _561  and  _563
REMARK  234  A    between atoms: _563  and  _564
REMARK  235  A    between atoms: _563  and  _566
REMARK  236  A    between atoms: _566  and  _567
REMARK  237  A    between atoms: _570  and  _572
REMARK  238  A    between atoms: _572  and  _573
REMARK  239  A    between atoms: _575  and  _577
REMARK  240  A    between atoms: _577  and  _578
REMARK  241  A    between atoms: _577  and  _580
REMARK  242  A    between atoms: _580  and  _581
REMARK  243  A    between atoms: _581  and  _582
REMARK  244  A    between atoms: _582  and  _583
REMARK  245  A    between atoms: _592  and  _594
REMARK  246  A    between atoms: _594  and  _595
REMARK  247  A    between atoms: _594  and  _597
REMARK  248  A    between atoms: _597  and  _598
REMARK                            x       y       z     vdW  Elec       q    Type
REMARK                         _______ _______ _______ _____ _____    ______ ____
ROOT
ATOM      1  O   HOH     1      20.651  22.028   6.707  0.00  0.00    +0.000 OA
ENDROOT
TORSDOF 0
REMARK  Name = ../refined-set-2016/1d4i/1d4i_pocket.pdb
REMARK  248 active torsions:
REMARK  status: ('A' for Active; 'I' for Inactive)
REMARK    1  A    between atoms: _1  and  _3
REMARK    2  A    between atoms: _3  and  _4
REMARK    3  A    between atoms: _3  and  _6
REMARK    4  A    between atoms: _6  and  _7
REMARK    5  A    between atoms: _7  and  _8
REMARK    6  A    between atoms: _8  and  _9
REMARK    7  A    between atoms: _18  and  _20
REMARK    8  A    between atoms: _20  and  _21
REMARK    9  A    between atoms: _20  and  _23
REMARK   10  A    between atoms: _23  and  _24
REMARK   11  A    between atoms: _27  and  _29
REMARK   12  A    between atoms: _29  and  _30
REMARK   13  A    between atoms: _29  and  _32
REMARK   14  A    between atoms: _32  and  _33
REMARK   15  A    between atoms: _36  and  _38
REMARK   16  A    between atoms: _38  and  _39
REMARK   17  A    between atoms: _38  and  _41
REMARK   18  A    between atoms: _41  and  _42
REMARK   19  A    between atoms: _45  and  _47
REMARK   20  A    between atoms: _47  and  _48
REMARK   21  A    between atoms: _47  and  _50
REMARK   22  A    between atoms: _50  and  _51
REMARK   23  A    between atoms: _54  and  _56
REMARK   24  A    between atoms: _56  and  _57
REMARK   25  A    between atoms: _56  and  _59
REMARK   26  A    between atoms: _59  and  _60
REMARK   27  A    between atoms: _63  and  _65
REMARK   28  A    between atoms: _65  and  _66
REMARK   29  A    between atoms: _68  and  _70
REMARK   30  A    between atoms: _70  and  _71
REMARK   31  A    between atoms: _74  and  _76
REMARK   32  A    between atoms: _76  and  _77
REMARK   33  A    between atoms: _76  and  _79
REMARK   34  A    between atoms: _79  and  _80
REMARK   35  A    between atoms: _83  and  _85
REMARK   36  A    between atoms: _85  and  _86
REMARK   37  A    between atoms: _85  and  _88
REMARK   38  A    between atoms: _88  and  _89
REMARK   39  A    between atoms: _92  and  _94
REMARK   40  A    between atoms: _94  and  _95
REMARK   41  A    between atoms: _94  and  _97
REMARK   42  A    between atoms: _97  and  _98
REMARK   43  A    between atoms: _101  and  _103
REMARK   44  A    between atoms: _103  and  _104
REMARK   45  A    between atoms: _103  and  _106
REMARK   46  A    between atoms: _109  and  _111
REMARK   47  A    between atoms: _111  and  _112
REMARK   48  A    between atoms: _111  and  _114
REMARK   49  A    between atoms: _114  and  _115
REMARK   50  A    between atoms: _118  and  _120
REMARK   51  A    between atoms: _120  and  _121
REMARK   52  A    between atoms: _120  and  _123
REMARK   53  A    between atoms: _123  and  _124
REMARK   54  A    between atoms: _124  and  _125
REMARK   55  A    between atoms: _125  and  _126
REMARK   56  A    between atoms: _126  and  _127
REMARK   57  A    between atoms: _131  and  _133
REMARK   58  A    between atoms: _133  and  _134
REMARK   59  A    between atoms: _133  and  _136
REMARK   60  A    between atoms: _136  and  _137
REMARK   61  A    between atoms: _137  and  _138
REMARK   62  A    between atoms: _140  and  _142
REMARK   63  A    between atoms: _142  and  _143
REMARK   64  A    between atoms: _142  and  _145
REMARK   65  A    between atoms: _145  and  _146
REMARK   66  A    between atoms: _149  and  _151
REMARK   67  A    between atoms: _151  and  _152
REMARK   68  A    between atoms: _154  and  _156
REMARK   69  A    between atoms: _156  and  _157
REMARK   70  A    between atoms: _159  and  _161
REMARK   71  A    between atoms: _161  and  _162
REMARK   72  A    between atoms: _161  and  _164
REMARK   73  A    between atoms: _164  and  _165
REMARK   74  A    between atoms: _168  and  _170
REMARK   75  A    between atoms: _170  and  _171
REMARK   76  A    between atoms: _173  and  _175
REMARK   77  A    between atoms: _175  and  _176
REMARK   78  A    between atoms: _178  and  _180
REMARK   79  A    between atoms: _180  and  _181
REMARK   80  A    between atoms: _180  and  _183
REMARK   81  A    between atoms: _183  and  _184
REMARK   82  A    between atoms: _190  and  _192
REMARK   83  A    between atoms: _192  and  _193
REMARK   84  A    between atoms: _192  and  _195
REMARK   85  A    between atoms: _195  and  _196
REMARK   86  A    between atoms: _199  and  _201
REMARK   87  A    between atoms: _201  and  _202
REMARK   88  A    between atoms: _201  and  _204
REMARK   89  A    between atoms: _207  and  _209
REMARK   90  A    between atoms: _209  and  _210
REMARK   91  A    between atoms: _209  and  _212
REMARK   92  A    between atoms: _212  and  _213
REMARK   93  A    between atoms: _216  and  _218
REMARK   94  A    between atoms: _218  and  _219
REMARK   95  A    between atoms: _218  and  _221
REMARK   96  A    between atoms: _221  and  _222
REMARK   97  A    between atoms: _226  and  _227
REMARK   98  A    between atoms: _232  and  _234
REMARK   99  A    between atoms: _234  and  _235
REMARK  100  A    between atoms: _234  and  _237
REMARK  101  A    between atoms: _240  and  _242
REMARK  102  A    between atoms: _242  and  _243
REMARK  103  A    between atoms: _242  and  _245
REMARK  104  A    between atoms: _245  and  _246
REMARK  105  A    between atoms: _251  and  _253
REMARK  106  A    between atoms: _253  and  _254
REMARK  107  A    between atoms: _253  and  _256
REMARK  108  A    between atoms: _256  and  _257
REMARK  109  A    between atoms: _260  and  _262
REMARK  110  A    between atoms: _262  and  _263
REMARK  111  A    between atoms: _262  and  _265
REMARK  112  A    between atoms: _265  and  _266
REMARK  113  A    between atoms: _269  and  _271
REMARK  114  A    between atoms: _271  and  _272
REMARK  115  A    between atoms: _274  and  _276
REMARK  116  A    between atoms: _276  and  _277
REMARK  117  A    between atoms: _276  and  _279
REMARK  118  A    between atoms: _279  and  _280
REMARK  119  A    between atoms: _280  and  _281
REMARK  120  A    between atoms: _281  and  _282
REMARK  121  A    between atoms: _291  and  _293
REMARK  122  A    between atoms: _293  and  _294
REMARK  123  A    between atoms: _293  and  _296
REMARK  124  A    between atoms: _296  and  _297
REMARK  125  A    between atoms: _302  and  _304
REMARK  126  A    between atoms: _304  and  _305
REMARK  127  A    between atoms: _304  and  _307
REMARK  128  A    between atoms: _307  and  _308
REMARK  129  A    between atoms: _308  and  _309
REMARK  130  A    between atoms: _309  and  _310
REMARK  131  A    between atoms: _319  and  _321
REMARK  132  A    between atoms: _321  and  _322
REMARK  133  A    between atoms: _321  and  _324
REMARK  134  A    between atoms: _324  and  _325
REMARK  135  A    between atoms: _328  and  _330
REMARK  136  A    between atoms: _330  and  _331
REMARK  137  A    between atoms: _330  and  _333
REMARK  138  A    between atoms: _333  and  _334
REMARK  139  A    between atoms: _337  and  _339
REMARK  140  A    between atoms: _339  and  _340
REMARK  141  A    between atoms: _339  and  _342
REMARK  142  A    between atoms: _342  and  _343
REMARK  143  A    between atoms: _346  and  _348
REMARK  144  A    between atoms: _348  and  _349
REMARK  145  A    between atoms: _348  and  _351
REMARK  146  A    between atoms: _351  and  _352
REMARK  147  A    between atoms: _355  and  _357
REMARK  148  A    between atoms: _357  and  _358
REMARK  149  A    between atoms: _357  and  _360
REMARK  150  A    between atoms: _360  and  _361
REMARK  151  A    between atoms: _364  and  _366
REMARK  152  A    between atoms: _366  and  _367
REMARK  153  A    between atoms: _369  and  _371
REMARK  154  A    between atoms: _371  and  _372
REMARK  155  A    between atoms: _375  and  _377
REMARK  156  A    between atoms: _377  and  _378
REMARK  157  A    between atoms: _377  and  _380
REMARK  158  A    between atoms: _380  and  _381
REMARK  159  A    between atoms: _384  and  _386
REMARK  160  A    between atoms: _386  and  _387
REMARK  161  A    between atoms: _386  and  _389
REMARK  162  A    between atoms: _389  and  _390
REMARK  163  A    between atoms: _393  and  _395
REMARK  164  A    between atoms: _395  and  _396
REMARK  165  A    between atoms: _395  and  _398
REMARK  166  A    between atoms: _398  and  _399
REMARK  167  A    between atoms: _402  and  _404
REMARK  168  A    between atoms: _404  and  _405
REMARK  169  A    between atoms: _404  and  _407
REMARK  170  A    between atoms: _410  and  _412
REMARK  171  A    between atoms: _412  and  _413
REMARK  172  A    between atoms: _412  and  _415
REMARK  173  A    between atoms: _415  and  _416
REMARK  174  A    between atoms: _419  and  _421
REMARK  175  A    between atoms: _421  and  _422
REMARK  176  A    between atoms: _421  and  _424
REMARK  177  A    between atoms: _424  and  _425
REMARK  178  A    between atoms: _425  and  _426
REMARK  179  A    between atoms: _426  and  _427
REMARK  180  A    between atoms: _427  and  _428
REMARK  181  A    between atoms: _432  and  _434
REMARK  182  A    between atoms: _434  and  _435
REMARK  183  A    between atoms: _434  and  _437
REMARK  184  A    between atoms: _437  and  _438
REMARK  185  A    between atoms: _438  and  _439
REMARK  186  A    between atoms: _441  and  _443
REMARK  187  A    between atoms: _443  and  _444
REMARK  188  A    between atoms: _443  and  _446
REMARK  189  A    between atoms: _446  and  _447
REMARK  190  A    between atoms: _450  and  _452
REMARK  191  A    between atoms: _452  and  _453
REMARK  192  A    between atoms: _455  and  _457
REMARK  193  A    between atoms: _457  and  _458
REMARK  194  A    between atoms: _460  and  _462
REMARK  195  A    between atoms: _462  and  _463
REMARK  196  A    between atoms: _462  and  _465
REMARK  197  A    between atoms: _465  and  _466
REMARK  198  A    between atoms: _469  and  _471
REMARK  199  A    between atoms: _471  and  _472
REMARK  200  A    between atoms: _474  and  _476
REMARK  201  A    between atoms: _476  and  _477
REMARK  202  A    between atoms: _479  and  _481
REMARK  203  A    between atoms: _481  and  _482
REMARK  204  A    between atoms: _481  and  _484
REMARK  205  A    between atoms: _484  and  _485
REMARK  206  A    between atoms: _491  and  _493
REMARK  207  A    between atoms: _493  and  _494
REMARK  208  A    between atoms: _493  and  _496
REMARK  209  A    between atoms: _496  and  _497
REMARK  210  A    between atoms: _500  and  _502
REMARK  211  A    between atoms: _502  and  _503
REMARK  212  A    between atoms: _502  and  _505
REMARK  213  A    between atoms: _508  and  _510
REMARK  214  A    between atoms: _510  and  _511
REMARK  215  A    between atoms: _510  and  _513
REMARK  216  A    between atoms: _513  and  _514
REMARK  217  A    between atoms: _517  and  _519
REMARK  218  A    between atoms: _519  and  _520
REMARK  219  A    between atoms: _519  and  _522
REMARK  220  A    between atoms: _522  and  _523
REMARK  221  A    between atoms: _527  and  _528
REMARK  222  A    between atoms: _533  and  _535
REMARK  223  A    between atoms: _535  and  _536
REMARK  224  A    between atoms: _535  and  _538
REMARK  225  A    between atoms: _541  and  _543
REMARK  226  A    between atoms: _543  and  _544
REMARK  227  A    between atoms: _543  and  _546
REMARK  228  A    between atoms: _546  and  _547
REMARK  229  A    between atoms: _552  and  _554
REMARK  230  A    between atoms: _554  and  _555
REMARK  231  A    between atoms: _554  and  _557
REMARK  232  A    between atoms: _557  and  _558
REMARK  233  A    between atoms: _561  and  _563
REMARK  234  A    between atoms: _563  and  _564
REMARK  235  A    between atoms: _563  and  _566
REMARK  236  A    between atoms: _566  and  _567
REMARK  237  A    between atoms: _570  and  _572
REMARK  238  A    between atoms: _572  and  _573
REMARK  239  A    between atoms: _575  and  _577
REMARK  240  A    between atoms: _577  and  _578
REMARK  241  A    between atoms: _577  and  _580
REMARK  242  A    between atoms: _580  and  _581
REMARK  243  A    between atoms: _581  and  _582
REMARK  244  A    between atoms: _582  and  _583
REMARK  245  A    between atoms: _592  and  _594
REMARK  246  A    between atoms: _594  and  _595
REMARK  247  A    between atoms: _594  and  _597
REMARK  248  A    between atoms: _597  and  _598
REMARK                            x       y       z     vdW  Elec       q    Type
REMARK                         _______ _______ _______ _____ _____    ______ ____
ROOT
ATOM      1  O   HOH     1       4.289  29.257   7.672  0.00  0.00    +0.000 OA
ENDROOT
TORSDOF 0
REMARK  Name = ../refined-set-2016/1d4i/1d4i_pocket.pdb
REMARK  248 active torsions:
REMARK  status: ('A' for Active; 'I' for Inactive)
REMARK    1  A    between atoms: _1  and  _3
REMARK    2  A    between atoms: _3  and  _4
REMARK    3  A    between atoms: _3  and  _6
REMARK    4  A    between atoms: _6  and  _7
REMARK    5  A    between atoms: _7  and  _8
REMARK    6  A    between atoms: _8  and  _9
REMARK    7  A    between atoms: _18  and  _20
REMARK    8  A    between atoms: _20  and  _21
REMARK    9  A    between atoms: _20  and  _23
REMARK   10  A    between atoms: _23  and  _24
REMARK   11  A    between atoms: _27  and  _29
REMARK   12  A    between atoms: _29  and  _30
REMARK   13  A    between atoms: _29  and  _32
REMARK   14  A    between atoms: _32  and  _33
REMARK   15  A    between atoms: _36  and  _38
REMARK   16  A    between atoms: _38  and  _39
REMARK   17  A    between atoms: _38  and  _41
REMARK   18  A    between atoms: _41  and  _42
REMARK   19  A    between atoms: _45  and  _47
REMARK   20  A    between atoms: _47  and  _48
REMARK   21  A    between atoms: _47  and  _50
REMARK   22  A    between atoms: _50  and  _51
REMARK   23  A    between atoms: _54  and  _56
REMARK   24  A    between atoms: _56  and  _57
REMARK   25  A    between atoms: _56  and  _59
REMARK   26  A    between atoms: _59  and  _60
REMARK   27  A    between atoms: _63  and  _65
REMARK   28  A    between atoms: _65  and  _66
REMARK   29  A    between atoms: _68  and  _70
REMARK   30  A    between atoms: _70  and  _71
REMARK   31  A    between atoms: _74  and  _76
REMARK   32  A    between atoms: _76  and  _77
REMARK   33  A    between atoms: _76  and  _79
REMARK   34  A    between atoms: _79  and  _80
REMARK   35  A    between atoms: _83  and  _85
REMARK   36  A    between atoms: _85  and  _86
REMARK   37  A    between atoms: _85  and  _88
REMARK   38  A    between atoms: _88  and  _89
REMARK   39  A    between atoms: _92  and  _94
REMARK   40  A    between atoms: _94  and  _95
REMARK   41  A    between atoms: _94  and  _97
REMARK   42  A    between atoms: _97  and  _98
REMARK   43  A    between atoms: _101  and  _103
REMARK   44  A    between atoms: _103  and  _104
REMARK   45  A    between atoms: _103  and  _106
REMARK   46  A    between atoms: _109  and  _111
REMARK   47  A    between atoms: _111  and  _112
REMARK   48  A    between atoms: _111  and  _114
REMARK   49  A    between atoms: _114  and  _115
REMARK   50  A    between atoms: _118  and  _120
REMARK   51  A    between atoms: _120  and  _121
REMARK   52  A    between atoms: _120  and  _123
REMARK   53  A    between atoms: _123  and  _124
REMARK   54  A    between atoms: _124  and  _125
REMARK   55  A    between atoms: _125  and  _126
REMARK   56  A    between atoms: _126  and  _127
REMARK   57  A    between atoms: _131  and  _133
REMARK   58  A    between atoms: _133  and  _134
REMARK   59  A    between atoms: _133  and  _136
REMARK   60  A    between atoms: _136  and  _137
REMARK   61  A    between atoms: _137  and  _138
REMARK   62  A    between atoms: _140  and  _142
REMARK   63  A    between atoms: _142  and  _143
REMARK   64  A    between atoms: _142  and  _145
REMARK   65  A    between atoms: _145  and  _146
REMARK   66  A    between atoms: _149  and  _151
REMARK   67  A    between atoms: _151  and  _152
REMARK   68  A    between atoms: _154  and  _156
REMARK   69  A    between atoms: _156  and  _157
REMARK   70  A    between atoms: _159  and  _161
REMARK   71  A    between atoms: _161  and  _162
REMARK   72  A    between atoms: _161  and  _164
REMARK   73  A    between atoms: _164  and  _165
REMARK   74  A    between atoms: _168  and  _170
REMARK   75  A    between atoms: _170  and  _171
REMARK   76  A    between atoms: _173  and  _175
REMARK   77  A    between atoms: _175  and  _176
REMARK   78  A    between atoms: _178  and  _180
REMARK   79  A    between atoms: _180  and  _181
REMARK   80  A    between atoms: _180  and  _183
REMARK   81  A    between atoms: _183  and  _184
REMARK   82  A    between atoms: _190  and  _192
REMARK   83  A    between atoms: _192  and  _193
REMARK   84  A    between atoms: _192  and  _195
REMARK   85  A    between atoms: _195  and  _196
REMARK   86  A    between atoms: _199  and  _201
REMARK   87  A    between atoms: _201  and  _202
REMARK   88  A    between atoms: _201  and  _204
REMARK   89  A    between atoms: _207  and  _209
REMARK   90  A    between atoms: _209  and  _210
REMARK   91  A    between atoms: _209  and  _212
REMARK   92  A    between atoms: _212  and  _213
REMARK   93  A    between atoms: _216  and  _218
REMARK   94  A    between atoms: _218  and  _219
REMARK   95  A    between atoms: _218  and  _221
REMARK   96  A    between atoms: _221  and  _222
REMARK   97  A    between atoms: _226  and  _227
REMARK   98  A    between atoms: _232  and  _234
REMARK   99  A    between atoms: _234  and  _235
REMARK  100  A    between atoms: _234  and  _237
REMARK  101  A    between atoms: _240  and  _242
REMARK  102  A    between atoms: _242  and  _243
REMARK  103  A    between atoms: _242  and  _245
REMARK  104  A    between atoms: _245  and  _246
REMARK  105  A    between atoms: _251  and  _253
REMARK  106  A    between atoms: _253  and  _254
REMARK  107  A    between atoms: _253  and  _256
REMARK  108  A    between atoms: _256  and  _257
REMARK  109  A    between atoms: _260  and  _262
REMARK  110  A    between atoms: _262  and  _263
REMARK  111  A    between atoms: _262  and  _265
REMARK  112  A    between atoms: _265  and  _266
REMARK  113  A    between atoms: _269  and  _271
REMARK  114  A    between atoms: _271  and  _272
REMARK  115  A    between atoms: _274  and  _276
REMARK  116  A    between atoms: _276  and  _277
REMARK  117  A    between atoms: _276  and  _279
REMARK  118  A    between atoms: _279  and  _280
REMARK  119  A    between atoms: _280  and  _281
REMARK  120  A    between atoms: _281  and  _282
REMARK  121  A    between atoms: _291  and  _293
REMARK  122  A    between atoms: _293  and  _294
REMARK  123  A    between atoms: _293  and  _296
REMARK  124  A    between atoms: _296  and  _297
REMARK  125  A    between atoms: _302  and  _304
REMARK  126  A    between atoms: _304  and  _305
REMARK  127  A    between atoms: _304  and  _307
REMARK  128  A    between atoms: _307  and  _308
REMARK  129  A    between atoms: _308  and  _309
REMARK  130  A    between atoms: _309  and  _310
REMARK  131  A    between atoms: _319  and  _321
REMARK  132  A    between atoms: _321  and  _322
REMARK  133  A    between atoms: _321  and  _324
REMARK  134  A    between atoms: _324  and  _325
REMARK  135  A    between atoms: _328  and  _330
REMARK  136  A    between atoms: _330  and  _331
REMARK  137  A    between atoms: _330  and  _333
REMARK  138  A    between atoms: _333  and  _334
REMARK  139  A    between atoms: _337  and  _339
REMARK  140  A    between atoms: _339  and  _340
REMARK  141  A    between atoms: _339  and  _342
REMARK  142  A    between atoms: _342  and  _343
REMARK  143  A    between atoms: _346  and  _348
REMARK  144  A    between atoms: _348  and  _349
REMARK  145  A    between atoms: _348  and  _351
REMARK  146  A    between atoms: _351  and  _352
REMARK  147  A    between atoms: _355  and  _357
REMARK  148  A    between atoms: _357  and  _358
REMARK  149  A    between atoms: _357  and  _360
REMARK  150  A    between atoms: _360  and  _361
REMARK  151  A    between atoms: _364  and  _366
REMARK  152  A    between atoms: _366  and  _367
REMARK  153  A    between atoms: _369  and  _371
REMARK  154  A    between atoms: _371  and  _372
REMARK  155  A    between atoms: _375  and  _377
REMARK  156  A    between atoms: _377  and  _378
REMARK  157  A    between atoms: _377  and  _380
REMARK  158  A    between atoms: _380  and  _381
REMARK  159  A    between atoms: _384  and  _386
REMARK  160  A    between atoms: _386  and  _387
REMARK  161  A    between atoms: _386  and  _389
REMARK  162  A    between atoms: _389  and  _390
REMARK  163  A    between atoms: _393  and  _395
REMARK  164  A    between atoms: _395  and  _396
REMARK  165  A    between atoms: _395  and  _398
REMARK  166  A    between atoms: _398  and  _399
REMARK  167  A    between atoms: _402  and  _404
REMARK  168  A    between atoms: _404  and  _405
REMARK  169  A    between atoms: _404  and  _407
REMARK  170  A    between atoms: _410  and  _412
REMARK  171  A    between atoms: _412  and  _413
REMARK  172  A    between atoms: _412  and  _415
REMARK  173  A    between atoms: _415  and  _416
REMARK  174  A    between atoms: _419  and  _421
REMARK  175  A    between atoms: _421  and  _422
REMARK  176  A    between atoms: _421  and  _424
REMARK  177  A    between atoms: _424  and  _425
REMARK  178  A    between atoms: _425  and  _426
REMARK  179  A    between atoms: _426  and  _427
REMARK  180  A    between atoms: _427  and  _428
REMARK  181  A    between atoms: _432  and  _434
REMARK  182  A    between atoms: _434  and  _435
REMARK  183  A    between atoms: _434  and  _437
REMARK  184  A    between atoms: _437  and  _438
REMARK  185  A    between atoms: _438  and  _439
REMARK  186  A    between atoms: _441  and  _443
REMARK  187  A    between atoms: _443  and  _444
REMARK  188  A    between atoms: _443  and  _446
REMARK  189  A    between atoms: _446  and  _447
REMARK  190  A    between atoms: _450  and  _452
REMARK  191  A    between atoms: _452  and  _453
REMARK  192  A    between atoms: _455  and  _457
REMARK  193  A    between atoms: _457  and  _458
REMARK  194  A    between atoms: _460  and  _462
REMARK  195  A    between atoms: _462  and  _463
REMARK  196  A    between atoms: _462  and  _465
REMARK  197  A    between atoms: _465  and  _466
REMARK  198  A    between atoms: _469  and  _471
REMARK  199  A    between atoms: _471  and  _472
REMARK  200  A    between atoms: _474  and  _476
REMARK  201  A    between atoms: _476  and  _477
REMARK  202  A    between atoms: _479  and  _481
REMARK  203  A    between atoms: _481  and  _482
REMARK  204  A    between atoms: _481  and  _484
REMARK  205  A    between atoms: _484  and  _485
REMARK  206  A    between atoms: _491  and  _493
REMARK  207  A    between atoms: _493  and  _494
REMARK  208  A    between atoms: _493  and  _496
REMARK  209  A    between atoms: _496  and  _497
REMARK  210  A    between atoms: _500  and  _502
REMARK  211  A    between atoms: _502  and  _503
REMARK  212  A    between atoms: _502  and  _505
REMARK  213  A    between atoms: _508  and  _510
REMARK  214  A    between atoms: _510  and  _511
REMARK  215  A    between atoms: _510  and  _513
REMARK  216  A    between atoms: _513  and  _514
REMARK  217  A    between atoms: _517  and  _519
REMARK  218  A    between atoms: _519  and  _520
REMARK  219  A    between atoms: _519  and  _522
REMARK  220  A    between atoms: _522  and  _523
REMARK  221  A    between atoms: _527  and  _528
REMARK  222  A    between atoms: _533  and  _535
REMARK  223  A    between atoms: _535  and  _536
REMARK  224  A    between atoms: _535  and  _538
REMARK  225  A    between atoms: _541  and  _543
REMARK  226  A    between atoms: _543  and  _544
REMARK  227  A    between atoms: _543  and  _546
REMARK  228  A    between atoms: _546  and  _547
REMARK  229  A    between atoms: _552  and  _554
REMARK  230  A    between atoms: _554  and  _555
REMARK  231  A    between atoms: _554  and  _557
REMARK  232  A    between atoms: _557  and  _558
REMARK  233  A    between atoms: _561  and  _563
REMARK  234  A    between atoms: _563  and  _564
REMARK  235  A    between atoms: _563  and  _566
REMARK  236  A    between atoms: _566  and  _567
REMARK  237  A    between atoms: _570  and  _572
REMARK  238  A    between atoms: _572  and  _573
REMARK  239  A    between atoms: _575  and  _577
REMARK  240  A    between atoms: _577  and  _578
REMARK  241  A    between atoms: _577  and  _580
REMARK  242  A    between atoms: _580  and  _581
REMARK  243  A    between atoms: _581  and  _582
REMARK  244  A    between atoms: _582  and  _583
REMARK  245  A    between atoms: _592  and  _594
REMARK  246  A    between atoms: _594  and  _595
REMARK  247  A    between atoms: _594  and  _597
REMARK  248  A    between atoms: _597  and  _598
REMARK                            x       y       z     vdW  Elec       q    Type
REMARK                         _______ _______ _______ _____ _____    ______ ____
ROOT
ATOM      1  O   HOH     1       6.862  15.976   3.468  0.00  0.00    +0.000 OA
ENDROOT
TORSDOF 0
REMARK  Name = ../refined-set-2016/1d4i/1d4i_pocket.pdb
REMARK  248 active torsions:
REMARK  status: ('A' for Active; 'I' for Inactive)
REMARK    1  A    between atoms: _1  and  _3
REMARK    2  A    between atoms: _3  and  _4
REMARK    3  A    between atoms: _3  and  _6
REMARK    4  A    between atoms: _6  and  _7
REMARK    5  A    between atoms: _7  and  _8
REMARK    6  A    between atoms: _8  and  _9
REMARK    7  A    between atoms: _18  and  _20
REMARK    8  A    between atoms: _20  and  _21
REMARK    9  A    between atoms: _20  and  _23
REMARK   10  A    between atoms: _23  and  _24
REMARK   11  A    between atoms: _27  and  _29
REMARK   12  A    between atoms: _29  and  _30
REMARK   13  A    between atoms: _29  and  _32
REMARK   14  A    between atoms: _32  and  _33
REMARK   15  A    between atoms: _36  and  _38
REMARK   16  A    between atoms: _38  and  _39
REMARK   17  A    between atoms: _38  and  _41
REMARK   18  A    between atoms: _41  and  _42
REMARK   19  A    between atoms: _45  and  _47
REMARK   20  A    between atoms: _47  and  _48
REMARK   21  A    between atoms: _47  and  _50
REMARK   22  A    between atoms: _50  and  _51
REMARK   23  A    between atoms: _54  and  _56
REMARK   24  A    between atoms: _56  and  _57
REMARK   25  A    between atoms: _56  and  _59
REMARK   26  A    between atoms: _59  and  _60
REMARK   27  A    between atoms: _63  and  _65
REMARK   28  A    between atoms: _65  and  _66
REMARK   29  A    between atoms: _68  and  _70
REMARK   30  A    between atoms: _70  and  _71
REMARK   31  A    between atoms: _74  and  _76
REMARK   32  A    between atoms: _76  and  _77
REMARK   33  A    between atoms: _76  and  _79
REMARK   34  A    between atoms: _79  and  _80
REMARK   35  A    between atoms: _83  and  _85
REMARK   36  A    between atoms: _85  and  _86
REMARK   37  A    between atoms: _85  and  _88
REMARK   38  A    between atoms: _88  and  _89
REMARK   39  A    between atoms: _92  and  _94
REMARK   40  A    between atoms: _94  and  _95
REMARK   41  A    between atoms: _94  and  _97
REMARK   42  A    between atoms: _97  and  _98
REMARK   43  A    between atoms: _101  and  _103
REMARK   44  A    between atoms: _103  and  _104
REMARK   45  A    between atoms: _103  and  _106
REMARK   46  A    between atoms: _109  and  _111
REMARK   47  A    between atoms: _111  and  _112
REMARK   48  A    between atoms: _111  and  _114
REMARK   49  A    between atoms: _114  and  _115
REMARK   50  A    between atoms: _118  and  _120
REMARK   51  A    between atoms: _120  and  _121
REMARK   52  A    between atoms: _120  and  _123
REMARK   53  A    between atoms: _123  and  _124
REMARK   54  A    between atoms: _124  and  _125
REMARK   55  A    between atoms: _125  and  _126
REMARK   56  A    between atoms: _126  and  _127
REMARK   57  A    between atoms: _131  and  _133
REMARK   58  A    between atoms: _133  and  _134
REMARK   59  A    between atoms: _133  and  _136
REMARK   60  A    between atoms: _136  and  _137
REMARK   61  A    between atoms: _137  and  _138
REMARK   62  A    between atoms: _140  and  _142
REMARK   63  A    between atoms: _142  and  _143
REMARK   64  A    between atoms: _142  and  _145
REMARK   65  A    between atoms: _145  and  _146
REMARK   66  A    between atoms: _149  and  _151
REMARK   67  A    between atoms: _151  and  _152
REMARK   68  A    between atoms: _154  and  _156
REMARK   69  A    between atoms: _156  and  _157
REMARK   70  A    between atoms: _159  and  _161
REMARK   71  A    between atoms: _161  and  _162
REMARK   72  A    between atoms: _161  and  _164
REMARK   73  A    between atoms: _164  and  _165
REMARK   74  A    between atoms: _168  and  _170
REMARK   75  A    between atoms: _170  and  _171
REMARK   76  A    between atoms: _173  and  _175
REMARK   77  A    between atoms: _175  and  _176
REMARK   78  A    between atoms: _178  and  _180
REMARK   79  A    between atoms: _180  and  _181
REMARK   80  A    between atoms: _180  and  _183
REMARK   81  A    between atoms: _183  and  _184
REMARK   82  A    between atoms: _190  and  _192
REMARK   83  A    between atoms: _192  and  _193
REMARK   84  A    between atoms: _192  and  _195
REMARK   85  A    between atoms: _195  and  _196
REMARK   86  A    between atoms: _199  and  _201
REMARK   87  A    between atoms: _201  and  _202
REMARK   88  A    between atoms: _201  and  _204
REMARK   89  A    between atoms: _207  and  _209
REMARK   90  A    between atoms: _209  and  _210
REMARK   91  A    between atoms: _209  and  _212
REMARK   92  A    between atoms: _212  and  _213
REMARK   93  A    between atoms: _216  and  _218
REMARK   94  A    between atoms: _218  and  _219
REMARK   95  A    between atoms: _218  and  _221
REMARK   96  A    between atoms: _221  and  _222
REMARK   97  A    between atoms: _226  and  _227
REMARK   98  A    between atoms: _232  and  _234
REMARK   99  A    between atoms: _234  and  _235
REMARK  100  A    between atoms: _234  and  _237
REMARK  101  A    between atoms: _240  and  _242
REMARK  102  A    between atoms: _242  and  _243
REMARK  103  A    between atoms: _242  and  _245
REMARK  104  A    between atoms: _245  and  _246
REMARK  105  A    between atoms: _251  and  _253
REMARK  106  A    between atoms: _253  and  _254
REMARK  107  A    between atoms: _253  and  _256
REMARK  108  A    between atoms: _256  and  _257
REMARK  109  A    between atoms: _260  and  _262
REMARK  110  A    between atoms: _262  and  _263
REMARK  111  A    between atoms: _262  and  _265
REMARK  112  A    between atoms: _265  and  _266
REMARK  113  A    between atoms: _269  and  _271
REMARK  114  A    between atoms: _271  and  _272
REMARK  115  A    between atoms: _274  and  _276
REMARK  116  A    between atoms: _276  and  _277
REMARK  117  A    between atoms: _276  and  _279
REMARK  118  A    between atoms: _279  and  _280
REMARK  119  A    between atoms: _280  and  _281
REMARK  120  A    between atoms: _281  and  _282
REMARK  121  A    between atoms: _291  and  _293
REMARK  122  A    between atoms: _293  and  _294
REMARK  123  A    between atoms: _293  and  _296
REMARK  124  A    between atoms: _296  and  _297
REMARK  125  A    between atoms: _302  and  _304
REMARK  126  A    between atoms: _304  and  _305
REMARK  127  A    between atoms: _304  and  _307
REMARK  128  A    between atoms: _307  and  _308
REMARK  129  A    between atoms: _308  and  _309
REMARK  130  A    between atoms: _309  and  _310
REMARK  131  A    between atoms: _319  and  _321
REMARK  132  A    between atoms: _321  and  _322
REMARK  133  A    between atoms: _321  and  _324
REMARK  134  A    between atoms: _324  and  _325
REMARK  135  A    between atoms: _328  and  _330
REMARK  136  A    between atoms: _330  and  _331
REMARK  137  A    between atoms: _330  and  _333
REMARK  138  A    between atoms: _333  and  _334
REMARK  139  A    between atoms: _337  and  _339
REMARK  140  A    between atoms: _339  and  _340
REMARK  141  A    between atoms: _339  and  _342
REMARK  142  A    between atoms: _342  and  _343
REMARK  143  A    between atoms: _346  and  _348
REMARK  144  A    between atoms: _348  and  _349
REMARK  145  A    between atoms: _348  and  _351
REMARK  146  A    between atoms: _351  and  _352
REMARK  147  A    between atoms: _355  and  _357
REMARK  148  A    between atoms: _357  and  _358
REMARK  149  A    between atoms: _357  and  _360
REMARK  150  A    between atoms: _360  and  _361
REMARK  151  A    between atoms: _364  and  _366
REMARK  152  A    between atoms: _366  and  _367
REMARK  153  A    between atoms: _369  and  _371
REMARK  154  A    between atoms: _371  and  _372
REMARK  155  A    between atoms: _375  and  _377
REMARK  156  A    between atoms: _377  and  _378
REMARK  157  A    between atoms: _377  and  _380
REMARK  158  A    between atoms: _380  and  _381
REMARK  159  A    between atoms: _384  and  _386
REMARK  160  A    between atoms: _386  and  _387
REMARK  161  A    between atoms: _386  and  _389
REMARK  162  A    between atoms: _389  and  _390
REMARK  163  A    between atoms: _393  and  _395
REMARK  164  A    between atoms: _395  and  _396
REMARK  165  A    between atoms: _395  and  _398
REMARK  166  A    between atoms: _398  and  _399
REMARK  167  A    between atoms: _402  and  _404
REMARK  168  A    between atoms: _404  and  _405
REMARK  169  A    between atoms: _404  and  _407
REMARK  170  A    between atoms: _410  and  _412
REMARK  171  A    between atoms: _412  and  _413
REMARK  172  A    between atoms: _412  and  _415
REMARK  173  A    between atoms: _415  and  _416
REMARK  174  A    between atoms: _419  and  _421
REMARK  175  A    between atoms: _421  and  _422
REMARK  176  A    between atoms: _421  and  _424
REMARK  177  A    between atoms: _424  and  _425
REMARK  178  A    between atoms: _425  and  _426
REMARK  179  A    between atoms: _426  and  _427
REMARK  180  A    between atoms: _427  and  _428
REMARK  181  A    between atoms: _432  and  _434
REMARK  182  A    between atoms: _434  and  _435
REMARK  183  A    between atoms: _434  and  _437
REMARK  184  A    between atoms: _437  and  _438
REMARK  185  A    between atoms: _438  and  _439
REMARK  186  A    between atoms: _441  and  _443
REMARK  187  A    between atoms: _443  and  _444
REMARK  188  A    between atoms: _443  and  _446
REMARK  189  A    between atoms: _446  and  _447
REMARK  190  A    between atoms: _450  and  _452
REMARK  191  A    between atoms: _452  and  _453
REMARK  192  A    between atoms: _455  and  _457
REMARK  193  A    between atoms: _457  and  _458
REMARK  194  A    between atoms: _460  and  _462
REMARK  195  A    between atoms: _462  and  _463
REMARK  196  A    between atoms: _462  and  _465
REMARK  197  A    between atoms: _465  and  _466
REMARK  198  A    between atoms: _469  and  _471
REMARK  199  A    between atoms: _471  and  _472
REMARK  200  A    between atoms: _474  and  _476
REMARK  201  A    between atoms: _476  and  _477
REMARK  202  A    between atoms: _479  and  _481
REMARK  203  A    between atoms: _481  and  _482
REMARK  204  A    between atoms: _481  and  _484
REMARK  205  A    between atoms: _484  and  _485
REMARK  206  A    between atoms: _491  and  _493
REMARK  207  A    between atoms: _493  and  _494
REMARK  208  A    between atoms: _493  and  _496
REMARK  209  A    between atoms: _496  and  _497
REMARK  210  A    between atoms: _500  and  _502
REMARK  211  A    between atoms: _502  and  _503
REMARK  212  A    between atoms: _502  and  _505
REMARK  213  A    between atoms: _508  and  _510
REMARK  214  A    between atoms: _510  and  _511
REMARK  215  A    between atoms: _510  and  _513
REMARK  216  A    between atoms: _513  and  _514
REMARK  217  A    between atoms: _517  and  _519
REMARK  218  A    between atoms: _519  and  _520
REMARK  219  A    between atoms: _519  and  _522
REMARK  220  A    between atoms: _522  and  _523
REMARK  221  A    between atoms: _527  and  _528
REMARK  222  A    between atoms: _533  and  _535
REMARK  223  A    between atoms: _535  and  _536
REMARK  224  A    between atoms: _535  and  _538
REMARK  225  A    between atoms: _541  and  _543
REMARK  226  A    between atoms: _543  and  _544
REMARK  227  A    between atoms: _543  and  _546
REMARK  228  A    between atoms: _546  and  _547
REMARK  229  A    between atoms: _552  and  _554
REMARK  230  A    between atoms: _554  and  _555
REMARK  231  A    between atoms: _554  and  _557
REMARK  232  A    between atoms: _557  and  _558
REMARK  233  A    between atoms: _561  and  _563
REMARK  234  A    between atoms: _563  and  _564
REMARK  235  A    between atoms: _563  and  _566
REMARK  236  A    between atoms: _566  and  _567
REMARK  237  A    between atoms: _570  and  _572
REMARK  238  A    between atoms: _572  and  _573
REMARK  239  A    between atoms: _575  and  _577
REMARK  240  A    between atoms: _577  and  _578
REMARK  241  A    between atoms: _577  and  _580
REMARK  242  A    between atoms: _580  and  _581
REMARK  243  A    between atoms: _581  and  _582
REMARK  244  A    between atoms: _582  and  _583
REMARK  245  A    between atoms: _592  and  _594
REMARK  246  A    between atoms: _594  and  _595
REMARK  247  A    between atoms: _594  and  _597
REMARK  248  A    between atoms: _597  and  _598
REMARK                            x       y       z     vdW  Elec       q    Type
REMARK                         _______ _______ _______ _____ _____    ______ ____
ROOT
ATOM      1  O   HOH     1      23.502  22.016  11.858  0.00  0.00    +0.000 OA
ENDROOT
TORSDOF 0
REMARK  Name = ../refined-set-2016/1d4i/1d4i_pocket.pdb
REMARK  248 active torsions:
REMARK  status: ('A' for Active; 'I' for Inactive)
REMARK    1  A    between atoms: _1  and  _3
REMARK    2  A    between atoms: _3  and  _4
REMARK    3  A    between atoms: _3  and  _6
REMARK    4  A    between atoms: _6  and  _7
REMARK    5  A    between atoms: _7  and  _8
REMARK    6  A    between atoms: _8  and  _9
REMARK    7  A    between atoms: _18  and  _20
REMARK    8  A    between atoms: _20  and  _21
REMARK    9  A    between atoms: _20  and  _23
REMARK   10  A    between atoms: _23  and  _24
REMARK   11  A    between atoms: _27  and  _29
REMARK   12  A    between atoms: _29  and  _30
REMARK   13  A    between atoms: _29  and  _32
REMARK   14  A    between atoms: _32  and  _33
REMARK   15  A    between atoms: _36  and  _38
REMARK   16  A    between atoms: _38  and  _39
REMARK   17  A    between atoms: _38  and  _41
REMARK   18  A    between atoms: _41  and  _42
REMARK   19  A    between atoms: _45  and  _47
REMARK   20  A    between atoms: _47  and  _48
REMARK   21  A    between atoms: _47  and  _50
REMARK   22  A    between atoms: _50  and  _51
REMARK   23  A    between atoms: _54  and  _56
REMARK   24  A    between atoms: _56  and  _57
REMARK   25  A    between atoms: _56  and  _59
REMARK   26  A    between atoms: _59  and  _60
REMARK   27  A    between atoms: _63  and  _65
REMARK   28  A    between atoms: _65  and  _66
REMARK   29  A    between atoms: _68  and  _70
REMARK   30  A    between atoms: _70  and  _71
REMARK   31  A    between atoms: _74  and  _76
REMARK   32  A    between atoms: _76  and  _77
REMARK   33  A    between atoms: _76  and  _79
REMARK   34  A    between atoms: _79  and  _80
REMARK   35  A    between atoms: _83  and  _85
REMARK   36  A    between atoms: _85  and  _86
REMARK   37  A    between atoms: _85  and  _88
REMARK   38  A    between atoms: _88  and  _89
REMARK   39  A    between atoms: _92  and  _94
REMARK   40  A    between atoms: _94  and  _95
REMARK   41  A    between atoms: _94  and  _97
REMARK   42  A    between atoms: _97  and  _98
REMARK   43  A    between atoms: _101  and  _103
REMARK   44  A    between atoms: _103  and  _104
REMARK   45  A    between atoms: _103  and  _106
REMARK   46  A    between atoms: _109  and  _111
REMARK   47  A    between atoms: _111  and  _112
REMARK   48  A    between atoms: _111  and  _114
REMARK   49  A    between atoms: _114  and  _115
REMARK   50  A    between atoms: _118  and  _120
REMARK   51  A    between atoms: _120  and  _121
REMARK   52  A    between atoms: _120  and  _123
REMARK   53  A    between atoms: _123  and  _124
REMARK   54  A    between atoms: _124  and  _125
REMARK   55  A    between atoms: _125  and  _126
REMARK   56  A    between atoms: _126  and  _127
REMARK   57  A    between atoms: _131  and  _133
REMARK   58  A    between atoms: _133  and  _134
REMARK   59  A    between atoms: _133  and  _136
REMARK   60  A    between atoms: _136  and  _137
REMARK   61  A    between atoms: _137  and  _138
REMARK   62  A    between atoms: _140  and  _142
REMARK   63  A    between atoms: _142  and  _143
REMARK   64  A    between atoms: _142  and  _145
REMARK   65  A    between atoms: _145  and  _146
REMARK   66  A    between atoms: _149  and  _151
REMARK   67  A    between atoms: _151  and  _152
REMARK   68  A    between atoms: _154  and  _156
REMARK   69  A    between atoms: _156  and  _157
REMARK   70  A    between atoms: _159  and  _161
REMARK   71  A    between atoms: _161  and  _162
REMARK   72  A    between atoms: _161  and  _164
REMARK   73  A    between atoms: _164  and  _165
REMARK   74  A    between atoms: _168  and  _170
REMARK   75  A    between atoms: _170  and  _171
REMARK   76  A    between atoms: _173  and  _175
REMARK   77  A    between atoms: _175  and  _176
REMARK   78  A    between atoms: _178  and  _180
REMARK   79  A    between atoms: _180  and  _181
REMARK   80  A    between atoms: _180  and  _183
REMARK   81  A    between atoms: _183  and  _184
REMARK   82  A    between atoms: _190  and  _192
REMARK   83  A    between atoms: _192  and  _193
REMARK   84  A    between atoms: _192  and  _195
REMARK   85  A    between atoms: _195  and  _196
REMARK   86  A    between atoms: _199  and  _201
REMARK   87  A    between atoms: _201  and  _202
REMARK   88  A    between atoms: _201  and  _204
REMARK   89  A    between atoms: _207  and  _209
REMARK   90  A    between atoms: _209  and  _210
REMARK   91  A    between atoms: _209  and  _212
REMARK   92  A    between atoms: _212  and  _213
REMARK   93  A    between atoms: _216  and  _218
REMARK   94  A    between atoms: _218  and  _219
REMARK   95  A    between atoms: _218  and  _221
REMARK   96  A    between atoms: _221  and  _222
REMARK   97  A    between atoms: _226  and  _227
REMARK   98  A    between atoms: _232  and  _234
REMARK   99  A    between atoms: _234  and  _235
REMARK  100  A    between atoms: _234  and  _237
REMARK  101  A    between atoms: _240  and  _242
REMARK  102  A    between atoms: _242  and  _243
REMARK  103  A    between atoms: _242  and  _245
REMARK  104  A    between atoms: _245  and  _246
REMARK  105  A    between atoms: _251  and  _253
REMARK  106  A    between atoms: _253  and  _254
REMARK  107  A    between atoms: _253  and  _256
REMARK  108  A    between atoms: _256  and  _257
REMARK  109  A    between atoms: _260  and  _262
REMARK  110  A    between atoms: _262  and  _263
REMARK  111  A    between atoms: _262  and  _265
REMARK  112  A    between atoms: _265  and  _266
REMARK  113  A    between atoms: _269  and  _271
REMARK  114  A    between atoms: _271  and  _272
REMARK  115  A    between atoms: _274  and  _276
REMARK  116  A    between atoms: _276  and  _277
REMARK  117  A    between atoms: _276  and  _279
REMARK  118  A    between atoms: _279  and  _280
REMARK  119  A    between atoms: _280  and  _281
REMARK  120  A    between atoms: _281  and  _282
REMARK  121  A    between atoms: _291  and  _293
REMARK  122  A    between atoms: _293  and  _294
REMARK  123  A    between atoms: _293  and  _296
REMARK  124  A    between atoms: _296  and  _297
REMARK  125  A    between atoms: _302  and  _304
REMARK  126  A    between atoms: _304  and  _305
REMARK  127  A    between atoms: _304  and  _307
REMARK  128  A    between atoms: _307  and  _308
REMARK  129  A    between atoms: _308  and  _309
REMARK  130  A    between atoms: _309  and  _310
REMARK  131  A    between atoms: _319  and  _321
REMARK  132  A    between atoms: _321  and  _322
REMARK  133  A    between atoms: _321  and  _324
REMARK  134  A    between atoms: _324  and  _325
REMARK  135  A    between atoms: _328  and  _330
REMARK  136  A    between atoms: _330  and  _331
REMARK  137  A    between atoms: _330  and  _333
REMARK  138  A    between atoms: _333  and  _334
REMARK  139  A    between atoms: _337  and  _339
REMARK  140  A    between atoms: _339  and  _340
REMARK  141  A    between atoms: _339  and  _342
REMARK  142  A    between atoms: _342  and  _343
REMARK  143  A    between atoms: _346  and  _348
REMARK  144  A    between atoms: _348  and  _349
REMARK  145  A    between atoms: _348  and  _351
REMARK  146  A    between atoms: _351  and  _352
REMARK  147  A    between atoms: _355  and  _357
REMARK  148  A    between atoms: _357  and  _358
REMARK  149  A    between atoms: _357  and  _360
REMARK  150  A    between atoms: _360  and  _361
REMARK  151  A    between atoms: _364  and  _366
REMARK  152  A    between atoms: _366  and  _367
REMARK  153  A    between atoms: _369  and  _371
REMARK  154  A    between atoms: _371  and  _372
REMARK  155  A    between atoms: _375  and  _377
REMARK  156  A    between atoms: _377  and  _378
REMARK  157  A    between atoms: _377  and  _380
REMARK  158  A    between atoms: _380  and  _381
REMARK  159  A    between atoms: _384  and  _386
REMARK  160  A    between atoms: _386  and  _387
REMARK  161  A    between atoms: _386  and  _389
REMARK  162  A    between atoms: _389  and  _390
REMARK  163  A    between atoms: _393  and  _395
REMARK  164  A    between atoms: _395  and  _396
REMARK  165  A    between atoms: _395  and  _398
REMARK  166  A    between atoms: _398  and  _399
REMARK  167  A    between atoms: _402  and  _404
REMARK  168  A    between atoms: _404  and  _405
REMARK  169  A    between atoms: _404  and  _407
REMARK  170  A    between atoms: _410  and  _412
REMARK  171  A    between atoms: _412  and  _413
REMARK  172  A    between atoms: _412  and  _415
REMARK  173  A    between atoms: _415  and  _416
REMARK  174  A    between atoms: _419  and  _421
REMARK  175  A    between atoms: _421  and  _422
REMARK  176  A    between atoms: _421  and  _424
REMARK  177  A    between atoms: _424  and  _425
REMARK  178  A    between atoms: _425  and  _426
REMARK  179  A    between atoms: _426  and  _427
REMARK  180  A    between atoms: _427  and  _428
REMARK  181  A    between atoms: _432  and  _434
REMARK  182  A    between atoms: _434  and  _435
REMARK  183  A    between atoms: _434  and  _437
REMARK  184  A    between atoms: _437  and  _438
REMARK  185  A    between atoms: _438  and  _439
REMARK  186  A    between atoms: _441  and  _443
REMARK  187  A    between atoms: _443  and  _444
REMARK  188  A    between atoms: _443  and  _446
REMARK  189  A    between atoms: _446  and  _447
REMARK  190  A    between atoms: _450  and  _452
REMARK  191  A    between atoms: _452  and  _453
REMARK  192  A    between atoms: _455  and  _457
REMARK  193  A    between atoms: _457  and  _458
REMARK  194  A    between atoms: _460  and  _462
REMARK  195  A    between atoms: _462  and  _463
REMARK  196  A    between atoms: _462  and  _465
REMARK  197  A    between atoms: _465  and  _466
REMARK  198  A    between atoms: _469  and  _471
REMARK  199  A    between atoms: _471  and  _472
REMARK  200  A    between atoms: _474  and  _476
REMARK  201  A    between atoms: _476  and  _477
REMARK  202  A    between atoms: _479  and  _481
REMARK  203  A    between atoms: _481  and  _482
REMARK  204  A    between atoms: _481  and  _484
REMARK  205  A    between atoms: _484  and  _485
REMARK  206  A    between atoms: _491  and  _493
REMARK  207  A    between atoms: _493  and  _494
REMARK  208  A    between atoms: _493  and  _496
REMARK  209  A    between atoms: _496  and  _497
REMARK  210  A    between atoms: _500  and  _502
REMARK  211  A    between atoms: _502  and  _503
REMARK  212  A    between atoms: _502  and  _505
REMARK  213  A    between atoms: _508  and  _510
REMARK  214  A    between atoms: _510  and  _511
REMARK  215  A    between atoms: _510  and  _513
REMARK  216  A    between atoms: _513  and  _514
REMARK  217  A    between atoms: _517  and  _519
REMARK  218  A    between atoms: _519  and  _520
REMARK  219  A    between atoms: _519  and  _522
REMARK  220  A    between atoms: _522  and  _523
REMARK  221  A    between atoms: _527  and  _528
REMARK  222  A    between atoms: _533  and  _535
REMARK  223  A    between atoms: _535  and  _536
REMARK  224  A    between atoms: _535  and  _538
REMARK  225  A    between atoms: _541  and  _543
REMARK  226  A    between atoms: _543  and  _544
REMARK  227  A    between atoms: _543  and  _546
REMARK  228  A    between atoms: _546  and  _547
REMARK  229  A    between atoms: _552  and  _554
REMARK  230  A    between atoms: _554  and  _555
REMARK  231  A    between atoms: _554  and  _557
REMARK  232  A    between atoms: _557  and  _558
REMARK  233  A    between atoms: _561  and  _563
REMARK  234  A    between atoms: _563  and  _564
REMARK  235  A    between atoms: _563  and  _566
REMARK  236  A    between atoms: _566  and  _567
REMARK  237  A    between atoms: _570  and  _572
REMARK  238  A    between atoms: _572  and  _573
REMARK  239  A    between atoms: _575  and  _577
REMARK  240  A    between atoms: _577  and  _578
REMARK  241  A    between atoms: _577  and  _580
REMARK  242  A    between atoms: _580  and  _581
REMARK  243  A    between atoms: _581  and  _582
REMARK  244  A    between atoms: _582  and  _583
REMARK  245  A    between atoms: _592  and  _594
REMARK  246  A    between atoms: _594  and  _595
REMARK  247  A    between atoms: _594  and  _597
REMARK  248  A    between atoms: _597  and  _598
REMARK                            x       y       z     vdW  Elec       q    Type
REMARK                         _______ _______ _______ _____ _____    ______ ____
ROOT
ATOM      1  O   HOH     1       8.062  35.627   5.579  0.00  0.00    +0.000 OA
ENDROOT
TORSDOF 0
REMARK  Name = ../refined-set-2016/1d4i/1d4i_pocket.pdb
REMARK  248 active torsions:
REMARK  status: ('A' for Active; 'I' for Inactive)
REMARK    1  A    between atoms: _1  and  _3
REMARK    2  A    between atoms: _3  and  _4
REMARK    3  A    between atoms: _3  and  _6
REMARK    4  A    between atoms: _6  and  _7
REMARK    5  A    between atoms: _7  and  _8
REMARK    6  A    between atoms: _8  and  _9
REMARK    7  A    between atoms: _18  and  _20
REMARK    8  A    between atoms: _20  and  _21
REMARK    9  A    between atoms: _20  and  _23
REMARK   10  A    between atoms: _23  and  _24
REMARK   11  A    between atoms: _27  and  _29
REMARK   12  A    between atoms: _29  and  _30
REMARK   13  A    between atoms: _29  and  _32
REMARK   14  A    between atoms: _32  and  _33
REMARK   15  A    between atoms: _36  and  _38
REMARK   16  A    between atoms: _38  and  _39
REMARK   17  A    between atoms: _38  and  _41
REMARK   18  A    between atoms: _41  and  _42
REMARK   19  A    between atoms: _45  and  _47
REMARK   20  A    between atoms: _47  and  _48
REMARK   21  A    between atoms: _47  and  _50
REMARK   22  A    between atoms: _50  and  _51
REMARK   23  A    between atoms: _54  and  _56
REMARK   24  A    between atoms: _56  and  _57
REMARK   25  A    between atoms: _56  and  _59
REMARK   26  A    between atoms: _59  and  _60
REMARK   27  A    between atoms: _63  and  _65
REMARK   28  A    between atoms: _65  and  _66
REMARK   29  A    between atoms: _68  and  _70
REMARK   30  A    between atoms: _70  and  _71
REMARK   31  A    between atoms: _74  and  _76
REMARK   32  A    between atoms: _76  and  _77
REMARK   33  A    between atoms: _76  and  _79
REMARK   34  A    between atoms: _79  and  _80
REMARK   35  A    between atoms: _83  and  _85
REMARK   36  A    between atoms: _85  and  _86
REMARK   37  A    between atoms: _85  and  _88
REMARK   38  A    between atoms: _88  and  _89
REMARK   39  A    between atoms: _92  and  _94
REMARK   40  A    between atoms: _94  and  _95
REMARK   41  A    between atoms: _94  and  _97
REMARK   42  A    between atoms: _97  and  _98
REMARK   43  A    between atoms: _101  and  _103
REMARK   44  A    between atoms: _103  and  _104
REMARK   45  A    between atoms: _103  and  _106
REMARK   46  A    between atoms: _109  and  _111
REMARK   47  A    between atoms: _111  and  _112
REMARK   48  A    between atoms: _111  and  _114
REMARK   49  A    between atoms: _114  and  _115
REMARK   50  A    between atoms: _118  and  _120
REMARK   51  A    between atoms: _120  and  _121
REMARK   52  A    between atoms: _120  and  _123
REMARK   53  A    between atoms: _123  and  _124
REMARK   54  A    between atoms: _124  and  _125
REMARK   55  A    between atoms: _125  and  _126
REMARK   56  A    between atoms: _126  and  _127
REMARK   57  A    between atoms: _131  and  _133
REMARK   58  A    between atoms: _133  and  _134
REMARK   59  A    between atoms: _133  and  _136
REMARK   60  A    between atoms: _136  and  _137
REMARK   61  A    between atoms: _137  and  _138
REMARK   62  A    between atoms: _140  and  _142
REMARK   63  A    between atoms: _142  and  _143
REMARK   64  A    between atoms: _142  and  _145
REMARK   65  A    between atoms: _145  and  _146
REMARK   66  A    between atoms: _149  and  _151
REMARK   67  A    between atoms: _151  and  _152
REMARK   68  A    between atoms: _154  and  _156
REMARK   69  A    between atoms: _156  and  _157
REMARK   70  A    between atoms: _159  and  _161
REMARK   71  A    between atoms: _161  and  _162
REMARK   72  A    between atoms: _161  and  _164
REMARK   73  A    between atoms: _164  and  _165
REMARK   74  A    between atoms: _168  and  _170
REMARK   75  A    between atoms: _170  and  _171
REMARK   76  A    between atoms: _173  and  _175
REMARK   77  A    between atoms: _175  and  _176
REMARK   78  A    between atoms: _178  and  _180
REMARK   79  A    between atoms: _180  and  _181
REMARK   80  A    between atoms: _180  and  _183
REMARK   81  A    between atoms: _183  and  _184
REMARK   82  A    between atoms: _190  and  _192
REMARK   83  A    between atoms: _192  and  _193
REMARK   84  A    between atoms: _192  and  _195
REMARK   85  A    between atoms: _195  and  _196
REMARK   86  A    between atoms: _199  and  _201
REMARK   87  A    between atoms: _201  and  _202
REMARK   88  A    between atoms: _201  and  _204
REMARK   89  A    between atoms: _207  and  _209
REMARK   90  A    between atoms: _209  and  _210
REMARK   91  A    between atoms: _209  and  _212
REMARK   92  A    between atoms: _212  and  _213
REMARK   93  A    between atoms: _216  and  _218
REMARK   94  A    between atoms: _218  and  _219
REMARK   95  A    between atoms: _218  and  _221
REMARK   96  A    between atoms: _221  and  _222
REMARK   97  A    between atoms: _226  and  _227
REMARK   98  A    between atoms: _232  and  _234
REMARK   99  A    between atoms: _234  and  _235
REMARK  100  A    between atoms: _234  and  _237
REMARK  101  A    between atoms: _240  and  _242
REMARK  102  A    between atoms: _242  and  _243
REMARK  103  A    between atoms: _242  and  _245
REMARK  104  A    between atoms: _245  and  _246
REMARK  105  A    between atoms: _251  and  _253
REMARK  106  A    between atoms: _253  and  _254
REMARK  107  A    between atoms: _253  and  _256
REMARK  108  A    between atoms: _256  and  _257
REMARK  109  A    between atoms: _260  and  _262
REMARK  110  A    between atoms: _262  and  _263
REMARK  111  A    between atoms: _262  and  _265
REMARK  112  A    between atoms: _265  and  _266
REMARK  113  A    between atoms: _269  and  _271
REMARK  114  A    between atoms: _271  and  _272
REMARK  115  A    between atoms: _274  and  _276
REMARK  116  A    between atoms: _276  and  _277
REMARK  117  A    between atoms: _276  and  _279
REMARK  118  A    between atoms: _279  and  _280
REMARK  119  A    between atoms: _280  and  _281
REMARK  120  A    between atoms: _281  and  _282
REMARK  121  A    between atoms: _291  and  _293
REMARK  122  A    between atoms: _293  and  _294
REMARK  123  A    between atoms: _293  and  _296
REMARK  124  A    between atoms: _296  and  _297
REMARK  125  A    between atoms: _302  and  _304
REMARK  126  A    between atoms: _304  and  _305
REMARK  127  A    between atoms: _304  and  _307
REMARK  128  A    between atoms: _307  and  _308
REMARK  129  A    between atoms: _308  and  _309
REMARK  130  A    between atoms: _309  and  _310
REMARK  131  A    between atoms: _319  and  _321
REMARK  132  A    between atoms: _321  and  _322
REMARK  133  A    between atoms: _321  and  _324
REMARK  134  A    between atoms: _324  and  _325
REMARK  135  A    between atoms: _328  and  _330
REMARK  136  A    between atoms: _330  and  _331
REMARK  137  A    between atoms: _330  and  _333
REMARK  138  A    between atoms: _333  and  _334
REMARK  139  A    between atoms: _337  and  _339
REMARK  140  A    between atoms: _339  and  _340
REMARK  141  A    between atoms: _339  and  _342
REMARK  142  A    between atoms: _342  and  _343
REMARK  143  A    between atoms: _346  and  _348
REMARK  144  A    between atoms: _348  and  _349
REMARK  145  A    between atoms: _348  and  _351
REMARK  146  A    between atoms: _351  and  _352
REMARK  147  A    between atoms: _355  and  _357
REMARK  148  A    between atoms: _357  and  _358
REMARK  149  A    between atoms: _357  and  _360
REMARK  150  A    between atoms: _360  and  _361
REMARK  151  A    between atoms: _364  and  _366
REMARK  152  A    between atoms: _366  and  _367
REMARK  153  A    between atoms: _369  and  _371
REMARK  154  A    between atoms: _371  and  _372
REMARK  155  A    between atoms: _375  and  _377
REMARK  156  A    between atoms: _377  and  _378
REMARK  157  A    between atoms: _377  and  _380
REMARK  158  A    between atoms: _380  and  _381
REMARK  159  A    between atoms: _384  and  _386
REMARK  160  A    between atoms: _386  and  _387
REMARK  161  A    between atoms: _386  and  _389
REMARK  162  A    between atoms: _389  and  _390
REMARK  163  A    between atoms: _393  and  _395
REMARK  164  A    between atoms: _395  and  _396
REMARK  165  A    between atoms: _395  and  _398
REMARK  166  A    between atoms: _398  and  _399
REMARK  167  A    between atoms: _402  and  _404
REMARK  168  A    between atoms: _404  and  _405
REMARK  169  A    between atoms: _404  and  _407
REMARK  170  A    between atoms: _410  and  _412
REMARK  171  A    between atoms: _412  and  _413
REMARK  172  A    between atoms: _412  and  _415
REMARK  173  A    between atoms: _415  and  _416
REMARK  174  A    between atoms: _419  and  _421
REMARK  175  A    between atoms: _421  and  _422
REMARK  176  A    between atoms: _421  and  _424
REMARK  177  A    between atoms: _424  and  _425
REMARK  178  A    between atoms: _425  and  _426
REMARK  179  A    between atoms: _426  and  _427
REMARK  180  A    between atoms: _427  and  _428
REMARK  181  A    between atoms: _432  and  _434
REMARK  182  A    between atoms: _434  and  _435
REMARK  183  A    between atoms: _434  and  _437
REMARK  184  A    between atoms: _437  and  _438
REMARK  185  A    between atoms: _438  and  _439
REMARK  186  A    between atoms: _441  and  _443
REMARK  187  A    between atoms: _443  and  _444
REMARK  188  A    between atoms: _443  and  _446
REMARK  189  A    between atoms: _446  and  _447
REMARK  190  A    between atoms: _450  and  _452
REMARK  191  A    between atoms: _452  and  _453
REMARK  192  A    between atoms: _455  and  _457
REMARK  193  A    between atoms: _457  and  _458
REMARK  194  A    between atoms: _460  and  _462
REMARK  195  A    between atoms: _462  and  _463
REMARK  196  A    between atoms: _462  and  _465
REMARK  197  A    between atoms: _465  and  _466
REMARK  198  A    between atoms: _469  and  _471
REMARK  199  A    between atoms: _471  and  _472
REMARK  200  A    between atoms: _474  and  _476
REMARK  201  A    between atoms: _476  and  _477
REMARK  202  A    between atoms: _479  and  _481
REMARK  203  A    between atoms: _481  and  _482
REMARK  204  A    between atoms: _481  and  _484
REMARK  205  A    between atoms: _484  and  _485
REMARK  206  A    between atoms: _491  and  _493
REMARK  207  A    between atoms: _493  and  _494
REMARK  208  A    between atoms: _493  and  _496
REMARK  209  A    between atoms: _496  and  _497
REMARK  210  A    between atoms: _500  and  _502
REMARK  211  A    between atoms: _502  and  _503
REMARK  212  A    between atoms: _502  and  _505
REMARK  213  A    between atoms: _508  and  _510
REMARK  214  A    between atoms: _510  and  _511
REMARK  215  A    between atoms: _510  and  _513
REMARK  216  A    between atoms: _513  and  _514
REMARK  217  A    between atoms: _517  and  _519
REMARK  218  A    between atoms: _519  and  _520
REMARK  219  A    between atoms: _519  and  _522
REMARK  220  A    between atoms: _522  and  _523
REMARK  221  A    between atoms: _527  and  _528
REMARK  222  A    between atoms: _533  and  _535
REMARK  223  A    between atoms: _535  and  _536
REMARK  224  A    between atoms: _535  and  _538
REMARK  225  A    between atoms: _541  and  _543
REMARK  226  A    between atoms: _543  and  _544
REMARK  227  A    between atoms: _543  and  _546
REMARK  228  A    between atoms: _546  and  _547
REMARK  229  A    between atoms: _552  and  _554
REMARK  230  A    between atoms: _554  and  _555
REMARK  231  A    between atoms: _554  and  _557
REMARK  232  A    between atoms: _557  and  _558
REMARK  233  A    between atoms: _561  and  _563
REMARK  234  A    between atoms: _563  and  _564
REMARK  235  A    between atoms: _563  and  _566
REMARK  236  A    between atoms: _566  and  _567
REMARK  237  A    between atoms: _570  and  _572
REMARK  238  A    between atoms: _572  and  _573
REMARK  239  A    between atoms: _575  and  _577
REMARK  240  A    between atoms: _577  and  _578
REMARK  241  A    between atoms: _577  and  _580
REMARK  242  A    between atoms: _580  and  _581
REMARK  243  A    between atoms: _581  and  _582
REMARK  244  A    between atoms: _582  and  _583
REMARK  245  A    between atoms: _592  and  _594
REMARK  246  A    between atoms: _594  and  _595
REMARK  247  A    between atoms: _594  and  _597
REMARK  248  A    between atoms: _597  and  _598
REMARK                            x       y       z     vdW  Elec       q    Type
REMARK                         _______ _______ _______ _____ _____    ______ ____
ROOT
ATOM      1  O   HOH     1       4.186  33.719  11.999  0.00  0.00    +0.000 OA
ENDROOT
TORSDOF 0
REMARK  Name = ../refined-set-2016/1d4i/1d4i_pocket.pdb
REMARK  248 active torsions:
REMARK  status: ('A' for Active; 'I' for Inactive)
REMARK    1  A    between atoms: _1  and  _3
REMARK    2  A    between atoms: _3  and  _4
REMARK    3  A    between atoms: _3  and  _6
REMARK    4  A    between atoms: _6  and  _7
REMARK    5  A    between atoms: _7  and  _8
REMARK    6  A    between atoms: _8  and  _9
REMARK    7  A    between atoms: _18  and  _20
REMARK    8  A    between atoms: _20  and  _21
REMARK    9  A    between atoms: _20  and  _23
REMARK   10  A    between atoms: _23  and  _24
REMARK   11  A    between atoms: _27  and  _29
REMARK   12  A    between atoms: _29  and  _30
REMARK   13  A    between atoms: _29  and  _32
REMARK   14  A    between atoms: _32  and  _33
REMARK   15  A    between atoms: _36  and  _38
REMARK   16  A    between atoms: _38  and  _39
REMARK   17  A    between atoms: _38  and  _41
REMARK   18  A    between atoms: _41  and  _42
REMARK   19  A    between atoms: _45  and  _47
REMARK   20  A    between atoms: _47  and  _48
REMARK   21  A    between atoms: _47  and  _50
REMARK   22  A    between atoms: _50  and  _51
REMARK   23  A    between atoms: _54  and  _56
REMARK   24  A    between atoms: _56  and  _57
REMARK   25  A    between atoms: _56  and  _59
REMARK   26  A    between atoms: _59  and  _60
REMARK   27  A    between atoms: _63  and  _65
REMARK   28  A    between atoms: _65  and  _66
REMARK   29  A    between atoms: _68  and  _70
REMARK   30  A    between atoms: _70  and  _71
REMARK   31  A    between atoms: _74  and  _76
REMARK   32  A    between atoms: _76  and  _77
REMARK   33  A    between atoms: _76  and  _79
REMARK   34  A    between atoms: _79  and  _80
REMARK   35  A    between atoms: _83  and  _85
REMARK   36  A    between atoms: _85  and  _86
REMARK   37  A    between atoms: _85  and  _88
REMARK   38  A    between atoms: _88  and  _89
REMARK   39  A    between atoms: _92  and  _94
REMARK   40  A    between atoms: _94  and  _95
REMARK   41  A    between atoms: _94  and  _97
REMARK   42  A    between atoms: _97  and  _98
REMARK   43  A    between atoms: _101  and  _103
REMARK   44  A    between atoms: _103  and  _104
REMARK   45  A    between atoms: _103  and  _106
REMARK   46  A    between atoms: _109  and  _111
REMARK   47  A    between atoms: _111  and  _112
REMARK   48  A    between atoms: _111  and  _114
REMARK   49  A    between atoms: _114  and  _115
REMARK   50  A    between atoms: _118  and  _120
REMARK   51  A    between atoms: _120  and  _121
REMARK   52  A    between atoms: _120  and  _123
REMARK   53  A    between atoms: _123  and  _124
REMARK   54  A    between atoms: _124  and  _125
REMARK   55  A    between atoms: _125  and  _126
REMARK   56  A    between atoms: _126  and  _127
REMARK   57  A    between atoms: _131  and  _133
REMARK   58  A    between atoms: _133  and  _134
REMARK   59  A    between atoms: _133  and  _136
REMARK   60  A    between atoms: _136  and  _137
REMARK   61  A    between atoms: _137  and  _138
REMARK   62  A    between atoms: _140  and  _142
REMARK   63  A    between atoms: _142  and  _143
REMARK   64  A    between atoms: _142  and  _145
REMARK   65  A    between atoms: _145  and  _146
REMARK   66  A    between atoms: _149  and  _151
REMARK   67  A    between atoms: _151  and  _152
REMARK   68  A    between atoms: _154  and  _156
REMARK   69  A    between atoms: _156  and  _157
REMARK   70  A    between atoms: _159  and  _161
REMARK   71  A    between atoms: _161  and  _162
REMARK   72  A    between atoms: _161  and  _164
REMARK   73  A    between atoms: _164  and  _165
REMARK   74  A    between atoms: _168  and  _170
REMARK   75  A    between atoms: _170  and  _171
REMARK   76  A    between atoms: _173  and  _175
REMARK   77  A    between atoms: _175  and  _176
REMARK   78  A    between atoms: _178  and  _180
REMARK   79  A    between atoms: _180  and  _181
REMARK   80  A    between atoms: _180  and  _183
REMARK   81  A    between atoms: _183  and  _184
REMARK   82  A    between atoms: _190  and  _192
REMARK   83  A    between atoms: _192  and  _193
REMARK   84  A    between atoms: _192  and  _195
REMARK   85  A    between atoms: _195  and  _196
REMARK   86  A    between atoms: _199  and  _201
REMARK   87  A    between atoms: _201  and  _202
REMARK   88  A    between atoms: _201  and  _204
REMARK   89  A    between atoms: _207  and  _209
REMARK   90  A    between atoms: _209  and  _210
REMARK   91  A    between atoms: _209  and  _212
REMARK   92  A    between atoms: _212  and  _213
REMARK   93  A    between atoms: _216  and  _218
REMARK   94  A    between atoms: _218  and  _219
REMARK   95  A    between atoms: _218  and  _221
REMARK   96  A    between atoms: _221  and  _222
REMARK   97  A    between atoms: _226  and  _227
REMARK   98  A    between atoms: _232  and  _234
REMARK   99  A    between atoms: _234  and  _235
REMARK  100  A    between atoms: _234  and  _237
REMARK  101  A    between atoms: _240  and  _242
REMARK  102  A    between atoms: _242  and  _243
REMARK  103  A    between atoms: _242  and  _245
REMARK  104  A    between atoms: _245  and  _246
REMARK  105  A    between atoms: _251  and  _253
REMARK  106  A    between atoms: _253  and  _254
REMARK  107  A    between atoms: _253  and  _256
REMARK  108  A    between atoms: _256  and  _257
REMARK  109  A    between atoms: _260  and  _262
REMARK  110  A    between atoms: _262  and  _263
REMARK  111  A    between atoms: _262  and  _265
REMARK  112  A    between atoms: _265  and  _266
REMARK  113  A    between atoms: _269  and  _271
REMARK  114  A    between atoms: _271  and  _272
REMARK  115  A    between atoms: _274  and  _276
REMARK  116  A    between atoms: _276  and  _277
REMARK  117  A    between atoms: _276  and  _279
REMARK  118  A    between atoms: _279  and  _280
REMARK  119  A    between atoms: _280  and  _281
REMARK  120  A    between atoms: _281  and  _282
REMARK  121  A    between atoms: _291  and  _293
REMARK  122  A    between atoms: _293  and  _294
REMARK  123  A    between atoms: _293  and  _296
REMARK  124  A    between atoms: _296  and  _297
REMARK  125  A    between atoms: _302  and  _304
REMARK  126  A    between atoms: _304  and  _305
REMARK  127  A    between atoms: _304  and  _307
REMARK  128  A    between atoms: _307  and  _308
REMARK  129  A    between atoms: _308  and  _309
REMARK  130  A    between atoms: _309  and  _310
REMARK  131  A    between atoms: _319  and  _321
REMARK  132  A    between atoms: _321  and  _322
REMARK  133  A    between atoms: _321  and  _324
REMARK  134  A    between atoms: _324  and  _325
REMARK  135  A    between atoms: _328  and  _330
REMARK  136  A    between atoms: _330  and  _331
REMARK  137  A    between atoms: _330  and  _333
REMARK  138  A    between atoms: _333  and  _334
REMARK  139  A    between atoms: _337  and  _339
REMARK  140  A    between atoms: _339  and  _340
REMARK  141  A    between atoms: _339  and  _342
REMARK  142  A    between atoms: _342  and  _343
REMARK  143  A    between atoms: _346  and  _348
REMARK  144  A    between atoms: _348  and  _349
REMARK  145  A    between atoms: _348  and  _351
REMARK  146  A    between atoms: _351  and  _352
REMARK  147  A    between atoms: _355  and  _357
REMARK  148  A    between atoms: _357  and  _358
REMARK  149  A    between atoms: _357  and  _360
REMARK  150  A    between atoms: _360  and  _361
REMARK  151  A    between atoms: _364  and  _366
REMARK  152  A    between atoms: _366  and  _367
REMARK  153  A    between atoms: _369  and  _371
REMARK  154  A    between atoms: _371  and  _372
REMARK  155  A    between atoms: _375  and  _377
REMARK  156  A    between atoms: _377  and  _378
REMARK  157  A    between atoms: _377  and  _380
REMARK  158  A    between atoms: _380  and  _381
REMARK  159  A    between atoms: _384  and  _386
REMARK  160  A    between atoms: _386  and  _387
REMARK  161  A    between atoms: _386  and  _389
REMARK  162  A    between atoms: _389  and  _390
REMARK  163  A    between atoms: _393  and  _395
REMARK  164  A    between atoms: _395  and  _396
REMARK  165  A    between atoms: _395  and  _398
REMARK  166  A    between atoms: _398  and  _399
REMARK  167  A    between atoms: _402  and  _404
REMARK  168  A    between atoms: _404  and  _405
REMARK  169  A    between atoms: _404  and  _407
REMARK  170  A    between atoms: _410  and  _412
REMARK  171  A    between atoms: _412  and  _413
REMARK  172  A    between atoms: _412  and  _415
REMARK  173  A    between atoms: _415  and  _416
REMARK  174  A    between atoms: _419  and  _421
REMARK  175  A    between atoms: _421  and  _422
REMARK  176  A    between atoms: _421  and  _424
REMARK  177  A    between atoms: _424  and  _425
REMARK  178  A    between atoms: _425  and  _426
REMARK  179  A    between atoms: _426  and  _427
REMARK  180  A    between atoms: _427  and  _428
REMARK  181  A    between atoms: _432  and  _434
REMARK  182  A    between atoms: _434  and  _435
REMARK  183  A    between atoms: _434  and  _437
REMARK  184  A    between atoms: _437  and  _438
REMARK  185  A    between atoms: _438  and  _439
REMARK  186  A    between atoms: _441  and  _443
REMARK  187  A    between atoms: _443  and  _444
REMARK  188  A    between atoms: _443  and  _446
REMARK  189  A    between atoms: _446  and  _447
REMARK  190  A    between atoms: _450  and  _452
REMARK  191  A    between atoms: _452  and  _453
REMARK  192  A    between atoms: _455  and  _457
REMARK  193  A    between atoms: _457  and  _458
REMARK  194  A    between atoms: _460  and  _462
REMARK  195  A    between atoms: _462  and  _463
REMARK  196  A    between atoms: _462  and  _465
REMARK  197  A    between atoms: _465  and  _466
REMARK  198  A    between atoms: _469  and  _471
REMARK  199  A    between atoms: _471  and  _472
REMARK  200  A    between atoms: _474  and  _476
REMARK  201  A    between atoms: _476  and  _477
REMARK  202  A    between atoms: _479  and  _481
REMARK  203  A    between atoms: _481  and  _482
REMARK  204  A    between atoms: _481  and  _484
REMARK  205  A    between atoms: _484  and  _485
REMARK  206  A    between atoms: _491  and  _493
REMARK  207  A    between atoms: _493  and  _494
REMARK  208  A    between atoms: _493  and  _496
REMARK  209  A    between atoms: _496  and  _497
REMARK  210  A    between atoms: _500  and  _502
REMARK  211  A    between atoms: _502  and  _503
REMARK  212  A    between atoms: _502  and  _505
REMARK  213  A    between atoms: _508  and  _510
REMARK  214  A    between atoms: _510  and  _511
REMARK  215  A    between atoms: _510  and  _513
REMARK  216  A    between atoms: _513  and  _514
REMARK  217  A    between atoms: _517  and  _519
REMARK  218  A    between atoms: _519  and  _520
REMARK  219  A    between atoms: _519  and  _522
REMARK  220  A    between atoms: _522  and  _523
REMARK  221  A    between atoms: _527  and  _528
REMARK  222  A    between atoms: _533  and  _535
REMARK  223  A    between atoms: _535  and  _536
REMARK  224  A    between atoms: _535  and  _538
REMARK  225  A    between atoms: _541  and  _543
REMARK  226  A    between atoms: _543  and  _544
REMARK  227  A    between atoms: _543  and  _546
REMARK  228  A    between atoms: _546  and  _547
REMARK  229  A    between atoms: _552  and  _554
REMARK  230  A    between atoms: _554  and  _555
REMARK  231  A    between atoms: _554  and  _557
REMARK  232  A    between atoms: _557  and  _558
REMARK  233  A    between atoms: _561  and  _563
REMARK  234  A    between atoms: _563  and  _564
REMARK  235  A    between atoms: _563  and  _566
REMARK  236  A    between atoms: _566  and  _567
REMARK  237  A    between atoms: _570  and  _572
REMARK  238  A    between atoms: _572  and  _573
REMARK  239  A    between atoms: _575  and  _577
REMARK  240  A    between atoms: _577  and  _578
REMARK  241  A    between atoms: _577  and  _580
REMARK  242  A    between atoms: _580  and  _581
REMARK  243  A    between atoms: _581  and  _582
REMARK  244  A    between atoms: _582  and  _583
REMARK  245  A    between atoms: _592  and  _594
REMARK  246  A    between atoms: _594  and  _595
REMARK  247  A    between atoms: _594  and  _597
REMARK  248  A    between atoms: _597  and  _598
REMARK                            x       y       z     vdW  Elec       q    Type
REMARK                         _______ _______ _______ _____ _____    ______ ____
ROOT
ATOM      1  O   HOH     1       0.509  25.483   5.686  0.00  0.00    +0.000 OA
ENDROOT
TORSDOF 0
REMARK  Name = ../refined-set-2016/1d4i/1d4i_pocket.pdb
REMARK  248 active torsions:
REMARK  status: ('A' for Active; 'I' for Inactive)
REMARK    1  A    between atoms: _1  and  _3
REMARK    2  A    between atoms: _3  and  _4
REMARK    3  A    between atoms: _3  and  _6
REMARK    4  A    between atoms: _6  and  _7
REMARK    5  A    between atoms: _7  and  _8
REMARK    6  A    between atoms: _8  and  _9
REMARK    7  A    between atoms: _18  and  _20
REMARK    8  A    between atoms: _20  and  _21
REMARK    9  A    between atoms: _20  and  _23
REMARK   10  A    between atoms: _23  and  _24
REMARK   11  A    between atoms: _27  and  _29
REMARK   12  A    between atoms: _29  and  _30
REMARK   13  A    between atoms: _29  and  _32
REMARK   14  A    between atoms: _32  and  _33
REMARK   15  A    between atoms: _36  and  _38
REMARK   16  A    between atoms: _38  and  _39
REMARK   17  A    between atoms: _38  and  _41
REMARK   18  A    between atoms: _41  and  _42
REMARK   19  A    between atoms: _45  and  _47
REMARK   20  A    between atoms: _47  and  _48
REMARK   21  A    between atoms: _47  and  _50
REMARK   22  A    between atoms: _50  and  _51
REMARK   23  A    between atoms: _54  and  _56
REMARK   24  A    between atoms: _56  and  _57
REMARK   25  A    between atoms: _56  and  _59
REMARK   26  A    between atoms: _59  and  _60
REMARK   27  A    between atoms: _63  and  _65
REMARK   28  A    between atoms: _65  and  _66
REMARK   29  A    between atoms: _68  and  _70
REMARK   30  A    between atoms: _70  and  _71
REMARK   31  A    between atoms: _74  and  _76
REMARK   32  A    between atoms: _76  and  _77
REMARK   33  A    between atoms: _76  and  _79
REMARK   34  A    between atoms: _79  and  _80
REMARK   35  A    between atoms: _83  and  _85
REMARK   36  A    between atoms: _85  and  _86
REMARK   37  A    between atoms: _85  and  _88
REMARK   38  A    between atoms: _88  and  _89
REMARK   39  A    between atoms: _92  and  _94
REMARK   40  A    between atoms: _94  and  _95
REMARK   41  A    between atoms: _94  and  _97
REMARK   42  A    between atoms: _97  and  _98
REMARK   43  A    between atoms: _101  and  _103
REMARK   44  A    between atoms: _103  and  _104
REMARK   45  A    between atoms: _103  and  _106
REMARK   46  A    between atoms: _109  and  _111
REMARK   47  A    between atoms: _111  and  _112
REMARK   48  A    between atoms: _111  and  _114
REMARK   49  A    between atoms: _114  and  _115
REMARK   50  A    between atoms: _118  and  _120
REMARK   51  A    between atoms: _120  and  _121
REMARK   52  A    between atoms: _120  and  _123
REMARK   53  A    between atoms: _123  and  _124
REMARK   54  A    between atoms: _124  and  _125
REMARK   55  A    between atoms: _125  and  _126
REMARK   56  A    between atoms: _126  and  _127
REMARK   57  A    between atoms: _131  and  _133
REMARK   58  A    between atoms: _133  and  _134
REMARK   59  A    between atoms: _133  and  _136
REMARK   60  A    between atoms: _136  and  _137
REMARK   61  A    between atoms: _137  and  _138
REMARK   62  A    between atoms: _140  and  _142
REMARK   63  A    between atoms: _142  and  _143
REMARK   64  A    between atoms: _142  and  _145
REMARK   65  A    between atoms: _145  and  _146
REMARK   66  A    between atoms: _149  and  _151
REMARK   67  A    between atoms: _151  and  _152
REMARK   68  A    between atoms: _154  and  _156
REMARK   69  A    between atoms: _156  and  _157
REMARK   70  A    between atoms: _159  and  _161
REMARK   71  A    between atoms: _161  and  _162
REMARK   72  A    between atoms: _161  and  _164
REMARK   73  A    between atoms: _164  and  _165
REMARK   74  A    between atoms: _168  and  _170
REMARK   75  A    between atoms: _170  and  _171
REMARK   76  A    between atoms: _173  and  _175
REMARK   77  A    between atoms: _175  and  _176
REMARK   78  A    between atoms: _178  and  _180
REMARK   79  A    between atoms: _180  and  _181
REMARK   80  A    between atoms: _180  and  _183
REMARK   81  A    between atoms: _183  and  _184
REMARK   82  A    between atoms: _190  and  _192
REMARK   83  A    between atoms: _192  and  _193
REMARK   84  A    between atoms: _192  and  _195
REMARK   85  A    between atoms: _195  and  _196
REMARK   86  A    between atoms: _199  and  _201
REMARK   87  A    between atoms: _201  and  _202
REMARK   88  A    between atoms: _201  and  _204
REMARK   89  A    between atoms: _207  and  _209
REMARK   90  A    between atoms: _209  and  _210
REMARK   91  A    between atoms: _209  and  _212
REMARK   92  A    between atoms: _212  and  _213
REMARK   93  A    between atoms: _216  and  _218
REMARK   94  A    between atoms: _218  and  _219
REMARK   95  A    between atoms: _218  and  _221
REMARK   96  A    between atoms: _221  and  _222
REMARK   97  A    between atoms: _226  and  _227
REMARK   98  A    between atoms: _232  and  _234
REMARK   99  A    between atoms: _234  and  _235
REMARK  100  A    between atoms: _234  and  _237
REMARK  101  A    between atoms: _240  and  _242
REMARK  102  A    between atoms: _242  and  _243
REMARK  103  A    between atoms: _242  and  _245
REMARK  104  A    between atoms: _245  and  _246
REMARK  105  A    between atoms: _251  and  _253
REMARK  106  A    between atoms: _253  and  _254
REMARK  107  A    between atoms: _253  and  _256
REMARK  108  A    between atoms: _256  and  _257
REMARK  109  A    between atoms: _260  and  _262
REMARK  110  A    between atoms: _262  and  _263
REMARK  111  A    between atoms: _262  and  _265
REMARK  112  A    between atoms: _265  and  _266
REMARK  113  A    between atoms: _269  and  _271
REMARK  114  A    between atoms: _271  and  _272
REMARK  115  A    between atoms: _274  and  _276
REMARK  116  A    between atoms: _276  and  _277
REMARK  117  A    between atoms: _276  and  _279
REMARK  118  A    between atoms: _279  and  _280
REMARK  119  A    between atoms: _280  and  _281
REMARK  120  A    between atoms: _281  and  _282
REMARK  121  A    between atoms: _291  and  _293
REMARK  122  A    between atoms: _293  and  _294
REMARK  123  A    between atoms: _293  and  _296
REMARK  124  A    between atoms: _296  and  _297
REMARK  125  A    between atoms: _302  and  _304
REMARK  126  A    between atoms: _304  and  _305
REMARK  127  A    between atoms: _304  and  _307
REMARK  128  A    between atoms: _307  and  _308
REMARK  129  A    between atoms: _308  and  _309
REMARK  130  A    between atoms: _309  and  _310
REMARK  131  A    between atoms: _319  and  _321
REMARK  132  A    between atoms: _321  and  _322
REMARK  133  A    between atoms: _321  and  _324
REMARK  134  A    between atoms: _324  and  _325
REMARK  135  A    between atoms: _328  and  _330
REMARK  136  A    between atoms: _330  and  _331
REMARK  137  A    between atoms: _330  and  _333
REMARK  138  A    between atoms: _333  and  _334
REMARK  139  A    between atoms: _337  and  _339
REMARK  140  A    between atoms: _339  and  _340
REMARK  141  A    between atoms: _339  and  _342
REMARK  142  A    between atoms: _342  and  _343
REMARK  143  A    between atoms: _346  and  _348
REMARK  144  A    between atoms: _348  and  _349
REMARK  145  A    between atoms: _348  and  _351
REMARK  146  A    between atoms: _351  and  _352
REMARK  147  A    between atoms: _355  and  _357
REMARK  148  A    between atoms: _357  and  _358
REMARK  149  A    between atoms: _357  and  _360
REMARK  150  A    between atoms: _360  and  _361
REMARK  151  A    between atoms: _364  and  _366
REMARK  152  A    between atoms: _366  and  _367
REMARK  153  A    between atoms: _369  and  _371
REMARK  154  A    between atoms: _371  and  _372
REMARK  155  A    between atoms: _375  and  _377
REMARK  156  A    between atoms: _377  and  _378
REMARK  157  A    between atoms: _377  and  _380
REMARK  158  A    between atoms: _380  and  _381
REMARK  159  A    between atoms: _384  and  _386
REMARK  160  A    between atoms: _386  and  _387
REMARK  161  A    between atoms: _386  and  _389
REMARK  162  A    between atoms: _389  and  _390
REMARK  163  A    between atoms: _393  and  _395
REMARK  164  A    between atoms: _395  and  _396
REMARK  165  A    between atoms: _395  and  _398
REMARK  166  A    between atoms: _398  and  _399
REMARK  167  A    between atoms: _402  and  _404
REMARK  168  A    between atoms: _404  and  _405
REMARK  169  A    between atoms: _404  and  _407
REMARK  170  A    between atoms: _410  and  _412
REMARK  171  A    between atoms: _412  and  _413
REMARK  172  A    between atoms: _412  and  _415
REMARK  173  A    between atoms: _415  and  _416
REMARK  174  A    between atoms: _419  and  _421
REMARK  175  A    between atoms: _421  and  _422
REMARK  176  A    between atoms: _421  and  _424
REMARK  177  A    between atoms: _424  and  _425
REMARK  178  A    between atoms: _425  and  _426
REMARK  179  A    between atoms: _426  and  _427
REMARK  180  A    between atoms: _427  and  _428
REMARK  181  A    between atoms: _432  and  _434
REMARK  182  A    between atoms: _434  and  _435
REMARK  183  A    between atoms: _434  and  _437
REMARK  184  A    between atoms: _437  and  _438
REMARK  185  A    between atoms: _438  and  _439
REMARK  186  A    between atoms: _441  and  _443
REMARK  187  A    between atoms: _443  and  _444
REMARK  188  A    between atoms: _443  and  _446
REMARK  189  A    between atoms: _446  and  _447
REMARK  190  A    between atoms: _450  and  _452
REMARK  191  A    between atoms: _452  and  _453
REMARK  192  A    between atoms: _455  and  _457
REMARK  193  A    between atoms: _457  and  _458
REMARK  194  A    between atoms: _460  and  _462
REMARK  195  A    between atoms: _462  and  _463
REMARK  196  A    between atoms: _462  and  _465
REMARK  197  A    between atoms: _465  and  _466
REMARK  198  A    between atoms: _469  and  _471
REMARK  199  A    between atoms: _471  and  _472
REMARK  200  A    between atoms: _474  and  _476
REMARK  201  A    between atoms: _476  and  _477
REMARK  202  A    between atoms: _479  and  _481
REMARK  203  A    between atoms: _481  and  _482
REMARK  204  A    between atoms: _481  and  _484
REMARK  205  A    between atoms: _484  and  _485
REMARK  206  A    between atoms: _491  and  _493
REMARK  207  A    between atoms: _493  and  _494
REMARK  208  A    between atoms: _493  and  _496
REMARK  209  A    between atoms: _496  and  _497
REMARK  210  A    between atoms: _500  and  _502
REMARK  211  A    between atoms: _502  and  _503
REMARK  212  A    between atoms: _502  and  _505
REMARK  213  A    between atoms: _508  and  _510
REMARK  214  A    between atoms: _510  and  _511
REMARK  215  A    between atoms: _510  and  _513
REMARK  216  A    between atoms: _513  and  _514
REMARK  217  A    between atoms: _517  and  _519
REMARK  218  A    between atoms: _519  and  _520
REMARK  219  A    between atoms: _519  and  _522
REMARK  220  A    between atoms: _522  and  _523
REMARK  221  A    between atoms: _527  and  _528
REMARK  222  A    between atoms: _533  and  _535
REMARK  223  A    between atoms: _535  and  _536
REMARK  224  A    between atoms: _535  and  _538
REMARK  225  A    between atoms: _541  and  _543
REMARK  226  A    between atoms: _543  and  _544
REMARK  227  A    between atoms: _543  and  _546
REMARK  228  A    between atoms: _546  and  _547
REMARK  229  A    between atoms: _552  and  _554
REMARK  230  A    between atoms: _554  and  _555
REMARK  231  A    between atoms: _554  and  _557
REMARK  232  A    between atoms: _557  and  _558
REMARK  233  A    between atoms: _561  and  _563
REMARK  234  A    between atoms: _563  and  _564
REMARK  235  A    between atoms: _563  and  _566
REMARK  236  A    between atoms: _566  and  _567
REMARK  237  A    between atoms: _570  and  _572
REMARK  238  A    between atoms: _572  and  _573
REMARK  239  A    between atoms: _575  and  _577
REMARK  240  A    between atoms: _577  and  _578
REMARK  241  A    between atoms: _577  and  _580
REMARK  242  A    between atoms: _580  and  _581
REMARK  243  A    between atoms: _581  and  _582
REMARK  244  A    between atoms: _582  and  _583
REMARK  245  A    between atoms: _592  and  _594
REMARK  246  A    between atoms: _594  and  _595
REMARK  247  A    between atoms: _594  and  _597
REMARK  248  A    between atoms: _597  and  _598
REMARK                            x       y       z     vdW  Elec       q    Type
REMARK                         _______ _______ _______ _____ _____    ______ ____
ROOT
ATOM      1  O   HOH     1      22.001  23.788   4.800  0.00  0.00    +0.000 OA
ENDROOT
TORSDOF 0
REMARK  Name = ../refined-set-2016/1d4i/1d4i_pocket.pdb
REMARK  248 active torsions:
REMARK  status: ('A' for Active; 'I' for Inactive)
REMARK    1  A    between atoms: _1  and  _3
REMARK    2  A    between atoms: _3  and  _4
REMARK    3  A    between atoms: _3  and  _6
REMARK    4  A    between atoms: _6  and  _7
REMARK    5  A    between atoms: _7  and  _8
REMARK    6  A    between atoms: _8  and  _9
REMARK    7  A    between atoms: _18  and  _20
REMARK    8  A    between atoms: _20  and  _21
REMARK    9  A    between atoms: _20  and  _23
REMARK   10  A    between atoms: _23  and  _24
REMARK   11  A    between atoms: _27  and  _29
REMARK   12  A    between atoms: _29  and  _30
REMARK   13  A    between atoms: _29  and  _32
REMARK   14  A    between atoms: _32  and  _33
REMARK   15  A    between atoms: _36  and  _38
REMARK   16  A    between atoms: _38  and  _39
REMARK   17  A    between atoms: _38  and  _41
REMARK   18  A    between atoms: _41  and  _42
REMARK   19  A    between atoms: _45  and  _47
REMARK   20  A    between atoms: _47  and  _48
REMARK   21  A    between atoms: _47  and  _50
REMARK   22  A    between atoms: _50  and  _51
REMARK   23  A    between atoms: _54  and  _56
REMARK   24  A    between atoms: _56  and  _57
REMARK   25  A    between atoms: _56  and  _59
REMARK   26  A    between atoms: _59  and  _60
REMARK   27  A    between atoms: _63  and  _65
REMARK   28  A    between atoms: _65  and  _66
REMARK   29  A    between atoms: _68  and  _70
REMARK   30  A    between atoms: _70  and  _71
REMARK   31  A    between atoms: _74  and  _76
REMARK   32  A    between atoms: _76  and  _77
REMARK   33  A    between atoms: _76  and  _79
REMARK   34  A    between atoms: _79  and  _80
REMARK   35  A    between atoms: _83  and  _85
REMARK   36  A    between atoms: _85  and  _86
REMARK   37  A    between atoms: _85  and  _88
REMARK   38  A    between atoms: _88  and  _89
REMARK   39  A    between atoms: _92  and  _94
REMARK   40  A    between atoms: _94  and  _95
REMARK   41  A    between atoms: _94  and  _97
REMARK   42  A    between atoms: _97  and  _98
REMARK   43  A    between atoms: _101  and  _103
REMARK   44  A    between atoms: _103  and  _104
REMARK   45  A    between atoms: _103  and  _106
REMARK   46  A    between atoms: _109  and  _111
REMARK   47  A    between atoms: _111  and  _112
REMARK   48  A    between atoms: _111  and  _114
REMARK   49  A    between atoms: _114  and  _115
REMARK   50  A    between atoms: _118  and  _120
REMARK   51  A    between atoms: _120  and  _121
REMARK   52  A    between atoms: _120  and  _123
REMARK   53  A    between atoms: _123  and  _124
REMARK   54  A    between atoms: _124  and  _125
REMARK   55  A    between atoms: _125  and  _126
REMARK   56  A    between atoms: _126  and  _127
REMARK   57  A    between atoms: _131  and  _133
REMARK   58  A    between atoms: _133  and  _134
REMARK   59  A    between atoms: _133  and  _136
REMARK   60  A    between atoms: _136  and  _137
REMARK   61  A    between atoms: _137  and  _138
REMARK   62  A    between atoms: _140  and  _142
REMARK   63  A    between atoms: _142  and  _143
REMARK   64  A    between atoms: _142  and  _145
REMARK   65  A    between atoms: _145  and  _146
REMARK   66  A    between atoms: _149  and  _151
REMARK   67  A    between atoms: _151  and  _152
REMARK   68  A    between atoms: _154  and  _156
REMARK   69  A    between atoms: _156  and  _157
REMARK   70  A    between atoms: _159  and  _161
REMARK   71  A    between atoms: _161  and  _162
REMARK   72  A    between atoms: _161  and  _164
REMARK   73  A    between atoms: _164  and  _165
REMARK   74  A    between atoms: _168  and  _170
REMARK   75  A    between atoms: _170  and  _171
REMARK   76  A    between atoms: _173  and  _175
REMARK   77  A    between atoms: _175  and  _176
REMARK   78  A    between atoms: _178  and  _180
REMARK   79  A    between atoms: _180  and  _181
REMARK   80  A    between atoms: _180  and  _183
REMARK   81  A    between atoms: _183  and  _184
REMARK   82  A    between atoms: _190  and  _192
REMARK   83  A    between atoms: _192  and  _193
REMARK   84  A    between atoms: _192  and  _195
REMARK   85  A    between atoms: _195  and  _196
REMARK   86  A    between atoms: _199  and  _201
REMARK   87  A    between atoms: _201  and  _202
REMARK   88  A    between atoms: _201  and  _204
REMARK   89  A    between atoms: _207  and  _209
REMARK   90  A    between atoms: _209  and  _210
REMARK   91  A    between atoms: _209  and  _212
REMARK   92  A    between atoms: _212  and  _213
REMARK   93  A    between atoms: _216  and  _218
REMARK   94  A    between atoms: _218  and  _219
REMARK   95  A    between atoms: _218  and  _221
REMARK   96  A    between atoms: _221  and  _222
REMARK   97  A    between atoms: _226  and  _227
REMARK   98  A    between atoms: _232  and  _234
REMARK   99  A    between atoms: _234  and  _235
REMARK  100  A    between atoms: _234  and  _237
REMARK  101  A    between atoms: _240  and  _242
REMARK  102  A    between atoms: _242  and  _243
REMARK  103  A    between atoms: _242  and  _245
REMARK  104  A    between atoms: _245  and  _246
REMARK  105  A    between atoms: _251  and  _253
REMARK  106  A    between atoms: _253  and  _254
REMARK  107  A    between atoms: _253  and  _256
REMARK  108  A    between atoms: _256  and  _257
REMARK  109  A    between atoms: _260  and  _262
REMARK  110  A    between atoms: _262  and  _263
REMARK  111  A    between atoms: _262  and  _265
REMARK  112  A    between atoms: _265  and  _266
REMARK  113  A    between atoms: _269  and  _271
REMARK  114  A    between atoms: _271  and  _272
REMARK  115  A    between atoms: _274  and  _276
REMARK  116  A    between atoms: _276  and  _277
REMARK  117  A    between atoms: _276  and  _279
REMARK  118  A    between atoms: _279  and  _280
REMARK  119  A    between atoms: _280  and  _281
REMARK  120  A    between atoms: _281  and  _282
REMARK  121  A    between atoms: _291  and  _293
REMARK  122  A    between atoms: _293  and  _294
REMARK  123  A    between atoms: _293  and  _296
REMARK  124  A    between atoms: _296  and  _297
REMARK  125  A    between atoms: _302  and  _304
REMARK  126  A    between atoms: _304  and  _305
REMARK  127  A    between atoms: _304  and  _307
REMARK  128  A    between atoms: _307  and  _308
REMARK  129  A    between atoms: _308  and  _309
REMARK  130  A    between atoms: _309  and  _310
REMARK  131  A    between atoms: _319  and  _321
REMARK  132  A    between atoms: _321  and  _322
REMARK  133  A    between atoms: _321  and  _324
REMARK  134  A    between atoms: _324  and  _325
REMARK  135  A    between atoms: _328  and  _330
REMARK  136  A    between atoms: _330  and  _331
REMARK  137  A    between atoms: _330  and  _333
REMARK  138  A    between atoms: _333  and  _334
REMARK  139  A    between atoms: _337  and  _339
REMARK  140  A    between atoms: _339  and  _340
REMARK  141  A    between atoms: _339  and  _342
REMARK  142  A    between atoms: _342  and  _343
REMARK  143  A    between atoms: _346  and  _348
REMARK  144  A    between atoms: _348  and  _349
REMARK  145  A    between atoms: _348  and  _351
REMARK  146  A    between atoms: _351  and  _352
REMARK  147  A    between atoms: _355  and  _357
REMARK  148  A    between atoms: _357  and  _358
REMARK  149  A    between atoms: _357  and  _360
REMARK  150  A    between atoms: _360  and  _361
REMARK  151  A    between atoms: _364  and  _366
REMARK  152  A    between atoms: _366  and  _367
REMARK  153  A    between atoms: _369  and  _371
REMARK  154  A    between atoms: _371  and  _372
REMARK  155  A    between atoms: _375  and  _377
REMARK  156  A    between atoms: _377  and  _378
REMARK  157  A    between atoms: _377  and  _380
REMARK  158  A    between atoms: _380  and  _381
REMARK  159  A    between atoms: _384  and  _386
REMARK  160  A    between atoms: _386  and  _387
REMARK  161  A    between atoms: _386  and  _389
REMARK  162  A    between atoms: _389  and  _390
REMARK  163  A    between atoms: _393  and  _395
REMARK  164  A    between atoms: _395  and  _396
REMARK  165  A    between atoms: _395  and  _398
REMARK  166  A    between atoms: _398  and  _399
REMARK  167  A    between atoms: _402  and  _404
REMARK  168  A    between atoms: _404  and  _405
REMARK  169  A    between atoms: _404  and  _407
REMARK  170  A    between atoms: _410  and  _412
REMARK  171  A    between atoms: _412  and  _413
REMARK  172  A    between atoms: _412  and  _415
REMARK  173  A    between atoms: _415  and  _416
REMARK  174  A    between atoms: _419  and  _421
REMARK  175  A    between atoms: _421  and  _422
REMARK  176  A    between atoms: _421  and  _424
REMARK  177  A    between atoms: _424  and  _425
REMARK  178  A    between atoms: _425  and  _426
REMARK  179  A    between atoms: _426  and  _427
REMARK  180  A    between atoms: _427  and  _428
REMARK  181  A    between atoms: _432  and  _434
REMARK  182  A    between atoms: _434  and  _435
REMARK  183  A    between atoms: _434  and  _437
REMARK  184  A    between atoms: _437  and  _438
REMARK  185  A    between atoms: _438  and  _439
REMARK  186  A    between atoms: _441  and  _443
REMARK  187  A    between atoms: _443  and  _444
REMARK  188  A    between atoms: _443  and  _446
REMARK  189  A    between atoms: _446  and  _447
REMARK  190  A    between atoms: _450  and  _452
REMARK  191  A    between atoms: _452  and  _453
REMARK  192  A    between atoms: _455  and  _457
REMARK  193  A    between atoms: _457  and  _458
REMARK  194  A    between atoms: _460  and  _462
REMARK  195  A    between atoms: _462  and  _463
REMARK  196  A    between atoms: _462  and  _465
REMARK  197  A    between atoms: _465  and  _466
REMARK  198  A    between atoms: _469  and  _471
REMARK  199  A    between atoms: _471  and  _472
REMARK  200  A    between atoms: _474  and  _476
REMARK  201  A    between atoms: _476  and  _477
REMARK  202  A    between atoms: _479  and  _481
REMARK  203  A    between atoms: _481  and  _482
REMARK  204  A    between atoms: _481  and  _484
REMARK  205  A    between atoms: _484  and  _485
REMARK  206  A    between atoms: _491  and  _493
REMARK  207  A    between atoms: _493  and  _494
REMARK  208  A    between atoms: _493  and  _496
REMARK  209  A    between atoms: _496  and  _497
REMARK  210  A    between atoms: _500  and  _502
REMARK  211  A    between atoms: _502  and  _503
REMARK  212  A    between atoms: _502  and  _505
REMARK  213  A    between atoms: _508  and  _510
REMARK  214  A    between atoms: _510  and  _511
REMARK  215  A    between atoms: _510  and  _513
REMARK  216  A    between atoms: _513  and  _514
REMARK  217  A    between atoms: _517  and  _519
REMARK  218  A    between atoms: _519  and  _520
REMARK  219  A    between atoms: _519  and  _522
REMARK  220  A    between atoms: _522  and  _523
REMARK  221  A    between atoms: _527  and  _528
REMARK  222  A    between atoms: _533  and  _535
REMARK  223  A    between atoms: _535  and  _536
REMARK  224  A    between atoms: _535  and  _538
REMARK  225  A    between atoms: _541  and  _543
REMARK  226  A    between atoms: _543  and  _544
REMARK  227  A    between atoms: _543  and  _546
REMARK  228  A    between atoms: _546  and  _547
REMARK  229  A    between atoms: _552  and  _554
REMARK  230  A    between atoms: _554  and  _555
REMARK  231  A    between atoms: _554  and  _557
REMARK  232  A    between atoms: _557  and  _558
REMARK  233  A    between atoms: _561  and  _563
REMARK  234  A    between atoms: _563  and  _564
REMARK  235  A    between atoms: _563  and  _566
REMARK  236  A    between atoms: _566  and  _567
REMARK  237  A    between atoms: _570  and  _572
REMARK  238  A    between atoms: _572  and  _573
REMARK  239  A    between atoms: _575  and  _577
REMARK  240  A    between atoms: _577  and  _578
REMARK  241  A    between atoms: _577  and  _580
REMARK  242  A    between atoms: _580  and  _581
REMARK  243  A    between atoms: _581  and  _582
REMARK  244  A    between atoms: _582  and  _583
REMARK  245  A    between atoms: _592  and  _594
REMARK  246  A    between atoms: _594  and  _595
REMARK  247  A    between atoms: _594  and  _597
REMARK  248  A    between atoms: _597  and  _598
REMARK                            x       y       z     vdW  Elec       q    Type
REMARK                         _______ _______ _______ _____ _____    ______ ____
ROOT
ATOM      1  O   HOH     1      20.415  16.052  -3.769  0.00  0.00    +0.000 OA
ENDROOT
TORSDOF 0
REMARK  Name = ../refined-set-2016/1d4i/1d4i_pocket.pdb
REMARK  248 active torsions:
REMARK  status: ('A' for Active; 'I' for Inactive)
REMARK    1  A    between atoms: _1  and  _3
REMARK    2  A    between atoms: _3  and  _4
REMARK    3  A    between atoms: _3  and  _6
REMARK    4  A    between atoms: _6  and  _7
REMARK    5  A    between atoms: _7  and  _8
REMARK    6  A    between atoms: _8  and  _9
REMARK    7  A    between atoms: _18  and  _20
REMARK    8  A    between atoms: _20  and  _21
REMARK    9  A    between atoms: _20  and  _23
REMARK   10  A    between atoms: _23  and  _24
REMARK   11  A    between atoms: _27  and  _29
REMARK   12  A    between atoms: _29  and  _30
REMARK   13  A    between atoms: _29  and  _32
REMARK   14  A    between atoms: _32  and  _33
REMARK   15  A    between atoms: _36  and  _38
REMARK   16  A    between atoms: _38  and  _39
REMARK   17  A    between atoms: _38  and  _41
REMARK   18  A    between atoms: _41  and  _42
REMARK   19  A    between atoms: _45  and  _47
REMARK   20  A    between atoms: _47  and  _48
REMARK   21  A    between atoms: _47  and  _50
REMARK   22  A    between atoms: _50  and  _51
REMARK   23  A    between atoms: _54  and  _56
REMARK   24  A    between atoms: _56  and  _57
REMARK   25  A    between atoms: _56  and  _59
REMARK   26  A    between atoms: _59  and  _60
REMARK   27  A    between atoms: _63  and  _65
REMARK   28  A    between atoms: _65  and  _66
REMARK   29  A    between atoms: _68  and  _70
REMARK   30  A    between atoms: _70  and  _71
REMARK   31  A    between atoms: _74  and  _76
REMARK   32  A    between atoms: _76  and  _77
REMARK   33  A    between atoms: _76  and  _79
REMARK   34  A    between atoms: _79  and  _80
REMARK   35  A    between atoms: _83  and  _85
REMARK   36  A    between atoms: _85  and  _86
REMARK   37  A    between atoms: _85  and  _88
REMARK   38  A    between atoms: _88  and  _89
REMARK   39  A    between atoms: _92  and  _94
REMARK   40  A    between atoms: _94  and  _95
REMARK   41  A    between atoms: _94  and  _97
REMARK   42  A    between atoms: _97  and  _98
REMARK   43  A    between atoms: _101  and  _103
REMARK   44  A    between atoms: _103  and  _104
REMARK   45  A    between atoms: _103  and  _106
REMARK   46  A    between atoms: _109  and  _111
REMARK   47  A    between atoms: _111  and  _112
REMARK   48  A    between atoms: _111  and  _114
REMARK   49  A    between atoms: _114  and  _115
REMARK   50  A    between atoms: _118  and  _120
REMARK   51  A    between atoms: _120  and  _121
REMARK   52  A    between atoms: _120  and  _123
REMARK   53  A    between atoms: _123  and  _124
REMARK   54  A    between atoms: _124  and  _125
REMARK   55  A    between atoms: _125  and  _126
REMARK   56  A    between atoms: _126  and  _127
REMARK   57  A    between atoms: _131  and  _133
REMARK   58  A    between atoms: _133  and  _134
REMARK   59  A    between atoms: _133  and  _136
REMARK   60  A    between atoms: _136  and  _137
REMARK   61  A    between atoms: _137  and  _138
REMARK   62  A    between atoms: _140  and  _142
REMARK   63  A    between atoms: _142  and  _143
REMARK   64  A    between atoms: _142  and  _145
REMARK   65  A    between atoms: _145  and  _146
REMARK   66  A    between atoms: _149  and  _151
REMARK   67  A    between atoms: _151  and  _152
REMARK   68  A    between atoms: _154  and  _156
REMARK   69  A    between atoms: _156  and  _157
REMARK   70  A    between atoms: _159  and  _161
REMARK   71  A    between atoms: _161  and  _162
REMARK   72  A    between atoms: _161  and  _164
REMARK   73  A    between atoms: _164  and  _165
REMARK   74  A    between atoms: _168  and  _170
REMARK   75  A    between atoms: _170  and  _171
REMARK   76  A    between atoms: _173  and  _175
REMARK   77  A    between atoms: _175  and  _176
REMARK   78  A    between atoms: _178  and  _180
REMARK   79  A    between atoms: _180  and  _181
REMARK   80  A    between atoms: _180  and  _183
REMARK   81  A    between atoms: _183  and  _184
REMARK   82  A    between atoms: _190  and  _192
REMARK   83  A    between atoms: _192  and  _193
REMARK   84  A    between atoms: _192  and  _195
REMARK   85  A    between atoms: _195  and  _196
REMARK   86  A    between atoms: _199  and  _201
REMARK   87  A    between atoms: _201  and  _202
REMARK   88  A    between atoms: _201  and  _204
REMARK   89  A    between atoms: _207  and  _209
REMARK   90  A    between atoms: _209  and  _210
REMARK   91  A    between atoms: _209  and  _212
REMARK   92  A    between atoms: _212  and  _213
REMARK   93  A    between atoms: _216  and  _218
REMARK   94  A    between atoms: _218  and  _219
REMARK   95  A    between atoms: _218  and  _221
REMARK   96  A    between atoms: _221  and  _222
REMARK   97  A    between atoms: _226  and  _227
REMARK   98  A    between atoms: _232  and  _234
REMARK   99  A    between atoms: _234  and  _235
REMARK  100  A    between atoms: _234  and  _237
REMARK  101  A    between atoms: _240  and  _242
REMARK  102  A    between atoms: _242  and  _243
REMARK  103  A    between atoms: _242  and  _245
REMARK  104  A    between atoms: _245  and  _246
REMARK  105  A    between atoms: _251  and  _253
REMARK  106  A    between atoms: _253  and  _254
REMARK  107  A    between atoms: _253  and  _256
REMARK  108  A    between atoms: _256  and  _257
REMARK  109  A    between atoms: _260  and  _262
REMARK  110  A    between atoms: _262  and  _263
REMARK  111  A    between atoms: _262  and  _265
REMARK  112  A    between atoms: _265  and  _266
REMARK  113  A    between atoms: _269  and  _271
REMARK  114  A    between atoms: _271  and  _272
REMARK  115  A    between atoms: _274  and  _276
REMARK  116  A    between atoms: _276  and  _277
REMARK  117  A    between atoms: _276  and  _279
REMARK  118  A    between atoms: _279  and  _280
REMARK  119  A    between atoms: _280  and  _281
REMARK  120  A    between atoms: _281  and  _282
REMARK  121  A    between atoms: _291  and  _293
REMARK  122  A    between atoms: _293  and  _294
REMARK  123  A    between atoms: _293  and  _296
REMARK  124  A    between atoms: _296  and  _297
REMARK  125  A    between atoms: _302  and  _304
REMARK  126  A    between atoms: _304  and  _305
REMARK  127  A    between atoms: _304  and  _307
REMARK  128  A    between atoms: _307  and  _308
REMARK  129  A    between atoms: _308  and  _309
REMARK  130  A    between atoms: _309  and  _310
REMARK  131  A    between atoms: _319  and  _321
REMARK  132  A    between atoms: _321  and  _322
REMARK  133  A    between atoms: _321  and  _324
REMARK  134  A    between atoms: _324  and  _325
REMARK  135  A    between atoms: _328  and  _330
REMARK  136  A    between atoms: _330  and  _331
REMARK  137  A    between atoms: _330  and  _333
REMARK  138  A    between atoms: _333  and  _334
REMARK  139  A    between atoms: _337  and  _339
REMARK  140  A    between atoms: _339  and  _340
REMARK  141  A    between atoms: _339  and  _342
REMARK  142  A    between atoms: _342  and  _343
REMARK  143  A    between atoms: _346  and  _348
REMARK  144  A    between atoms: _348  and  _349
REMARK  145  A    between atoms: _348  and  _351
REMARK  146  A    between atoms: _351  and  _352
REMARK  147  A    between atoms: _355  and  _357
REMARK  148  A    between atoms: _357  and  _358
REMARK  149  A    between atoms: _357  and  _360
REMARK  150  A    between atoms: _360  and  _361
REMARK  151  A    between atoms: _364  and  _366
REMARK  152  A    between atoms: _366  and  _367
REMARK  153  A    between atoms: _369  and  _371
REMARK  154  A    between atoms: _371  and  _372
REMARK  155  A    between atoms: _375  and  _377
REMARK  156  A    between atoms: _377  and  _378
REMARK  157  A    between atoms: _377  and  _380
REMARK  158  A    between atoms: _380  and  _381
REMARK  159  A    between atoms: _384  and  _386
REMARK  160  A    between atoms: _386  and  _387
REMARK  161  A    between atoms: _386  and  _389
REMARK  162  A    between atoms: _389  and  _390
REMARK  163  A    between atoms: _393  and  _395
REMARK  164  A    between atoms: _395  and  _396
REMARK  165  A    between atoms: _395  and  _398
REMARK  166  A    between atoms: _398  and  _399
REMARK  167  A    between atoms: _402  and  _404
REMARK  168  A    between atoms: _404  and  _405
REMARK  169  A    between atoms: _404  and  _407
REMARK  170  A    between atoms: _410  and  _412
REMARK  171  A    between atoms: _412  and  _413
REMARK  172  A    between atoms: _412  and  _415
REMARK  173  A    between atoms: _415  and  _416
REMARK  174  A    between atoms: _419  and  _421
REMARK  175  A    between atoms: _421  and  _422
REMARK  176  A    between atoms: _421  and  _424
REMARK  177  A    between atoms: _424  and  _425
REMARK  178  A    between atoms: _425  and  _426
REMARK  179  A    between atoms: _426  and  _427
REMARK  180  A    between atoms: _427  and  _428
REMARK  181  A    between atoms: _432  and  _434
REMARK  182  A    between atoms: _434  and  _435
REMARK  183  A    between atoms: _434  and  _437
REMARK  184  A    between atoms: _437  and  _438
REMARK  185  A    between atoms: _438  and  _439
REMARK  186  A    between atoms: _441  and  _443
REMARK  187  A    between atoms: _443  and  _444
REMARK  188  A    between atoms: _443  and  _446
REMARK  189  A    between atoms: _446  and  _447
REMARK  190  A    between atoms: _450  and  _452
REMARK  191  A    between atoms: _452  and  _453
REMARK  192  A    between atoms: _455  and  _457
REMARK  193  A    between atoms: _457  and  _458
REMARK  194  A    between atoms: _460  and  _462
REMARK  195  A    between atoms: _462  and  _463
REMARK  196  A    between atoms: _462  and  _465
REMARK  197  A    between atoms: _465  and  _466
REMARK  198  A    between atoms: _469  and  _471
REMARK  199  A    between atoms: _471  and  _472
REMARK  200  A    between atoms: _474  and  _476
REMARK  201  A    between atoms: _476  and  _477
REMARK  202  A    between atoms: _479  and  _481
REMARK  203  A    between atoms: _481  and  _482
REMARK  204  A    between atoms: _481  and  _484
REMARK  205  A    between atoms: _484  and  _485
REMARK  206  A    between atoms: _491  and  _493
REMARK  207  A    between atoms: _493  and  _494
REMARK  208  A    between atoms: _493  and  _496
REMARK  209  A    between atoms: _496  and  _497
REMARK  210  A    between atoms: _500  and  _502
REMARK  211  A    between atoms: _502  and  _503
REMARK  212  A    between atoms: _502  and  _505
REMARK  213  A    between atoms: _508  and  _510
REMARK  214  A    between atoms: _510  and  _511
REMARK  215  A    between atoms: _510  and  _513
REMARK  216  A    between atoms: _513  and  _514
REMARK  217  A    between atoms: _517  and  _519
REMARK  218  A    between atoms: _519  and  _520
REMARK  219  A    between atoms: _519  and  _522
REMARK  220  A    between atoms: _522  and  _523
REMARK  221  A    between atoms: _527  and  _528
REMARK  222  A    between atoms: _533  and  _535
REMARK  223  A    between atoms: _535  and  _536
REMARK  224  A    between atoms: _535  and  _538
REMARK  225  A    between atoms: _541  and  _543
REMARK  226  A    between atoms: _543  and  _544
REMARK  227  A    between atoms: _543  and  _546
REMARK  228  A    between atoms: _546  and  _547
REMARK  229  A    between atoms: _552  and  _554
REMARK  230  A    between atoms: _554  and  _555
REMARK  231  A    between atoms: _554  and  _557
REMARK  232  A    between atoms: _557  and  _558
REMARK  233  A    between atoms: _561  and  _563
REMARK  234  A    between atoms: _563  and  _564
REMARK  235  A    between atoms: _563  and  _566
REMARK  236  A    between atoms: _566  and  _567
REMARK  237  A    between atoms: _570  and  _572
REMARK  238  A    between atoms: _572  and  _573
REMARK  239  A    between atoms: _575  and  _577
REMARK  240  A    between atoms: _577  and  _578
REMARK  241  A    between atoms: _577  and  _580
REMARK  242  A    between atoms: _580  and  _581
REMARK  243  A    between atoms: _581  and  _582
REMARK  244  A    between atoms: _582  and  _583
REMARK  245  A    between atoms: _592  and  _594
REMARK  246  A    between atoms: _594  and  _595
REMARK  247  A    between atoms: _594  and  _597
REMARK  248  A    between atoms: _597  and  _598
REMARK                            x       y       z     vdW  Elec       q    Type
REMARK                         _______ _______ _______ _____ _____    ______ ____
ROOT
ATOM      1  O   HOH     1       6.203  28.303  -3.126  0.00  0.00    +0.000 OA
ENDROOT
TORSDOF 0
REMARK  Name = ../refined-set-2016/1d4i/1d4i_pocket.pdb
REMARK  248 active torsions:
REMARK  status: ('A' for Active; 'I' for Inactive)
REMARK    1  A    between atoms: _1  and  _3
REMARK    2  A    between atoms: _3  and  _4
REMARK    3  A    between atoms: _3  and  _6
REMARK    4  A    between atoms: _6  and  _7
REMARK    5  A    between atoms: _7  and  _8
REMARK    6  A    between atoms: _8  and  _9
REMARK    7  A    between atoms: _18  and  _20
REMARK    8  A    between atoms: _20  and  _21
REMARK    9  A    between atoms: _20  and  _23
REMARK   10  A    between atoms: _23  and  _24
REMARK   11  A    between atoms: _27  and  _29
REMARK   12  A    between atoms: _29  and  _30
REMARK   13  A    between atoms: _29  and  _32
REMARK   14  A    between atoms: _32  and  _33
REMARK   15  A    between atoms: _36  and  _38
REMARK   16  A    between atoms: _38  and  _39
REMARK   17  A    between atoms: _38  and  _41
REMARK   18  A    between atoms: _41  and  _42
REMARK   19  A    between atoms: _45  and  _47
REMARK   20  A    between atoms: _47  and  _48
REMARK   21  A    between atoms: _47  and  _50
REMARK   22  A    between atoms: _50  and  _51
REMARK   23  A    between atoms: _54  and  _56
REMARK   24  A    between atoms: _56  and  _57
REMARK   25  A    between atoms: _56  and  _59
REMARK   26  A    between atoms: _59  and  _60
REMARK   27  A    between atoms: _63  and  _65
REMARK   28  A    between atoms: _65  and  _66
REMARK   29  A    between atoms: _68  and  _70
REMARK   30  A    between atoms: _70  and  _71
REMARK   31  A    between atoms: _74  and  _76
REMARK   32  A    between atoms: _76  and  _77
REMARK   33  A    between atoms: _76  and  _79
REMARK   34  A    between atoms: _79  and  _80
REMARK   35  A    between atoms: _83  and  _85
REMARK   36  A    between atoms: _85  and  _86
REMARK   37  A    between atoms: _85  and  _88
REMARK   38  A    between atoms: _88  and  _89
REMARK   39  A    between atoms: _92  and  _94
REMARK   40  A    between atoms: _94  and  _95
REMARK   41  A    between atoms: _94  and  _97
REMARK   42  A    between atoms: _97  and  _98
REMARK   43  A    between atoms: _101  and  _103
REMARK   44  A    between atoms: _103  and  _104
REMARK   45  A    between atoms: _103  and  _106
REMARK   46  A    between atoms: _109  and  _111
REMARK   47  A    between atoms: _111  and  _112
REMARK   48  A    between atoms: _111  and  _114
REMARK   49  A    between atoms: _114  and  _115
REMARK   50  A    between atoms: _118  and  _120
REMARK   51  A    between atoms: _120  and  _121
REMARK   52  A    between atoms: _120  and  _123
REMARK   53  A    between atoms: _123  and  _124
REMARK   54  A    between atoms: _124  and  _125
REMARK   55  A    between atoms: _125  and  _126
REMARK   56  A    between atoms: _126  and  _127
REMARK   57  A    between atoms: _131  and  _133
REMARK   58  A    between atoms: _133  and  _134
REMARK   59  A    between atoms: _133  and  _136
REMARK   60  A    between atoms: _136  and  _137
REMARK   61  A    between atoms: _137  and  _138
REMARK   62  A    between atoms: _140  and  _142
REMARK   63  A    between atoms: _142  and  _143
REMARK   64  A    between atoms: _142  and  _145
REMARK   65  A    between atoms: _145  and  _146
REMARK   66  A    between atoms: _149  and  _151
REMARK   67  A    between atoms: _151  and  _152
REMARK   68  A    between atoms: _154  and  _156
REMARK   69  A    between atoms: _156  and  _157
REMARK   70  A    between atoms: _159  and  _161
REMARK   71  A    between atoms: _161  and  _162
REMARK   72  A    between atoms: _161  and  _164
REMARK   73  A    between atoms: _164  and  _165
REMARK   74  A    between atoms: _168  and  _170
REMARK   75  A    between atoms: _170  and  _171
REMARK   76  A    between atoms: _173  and  _175
REMARK   77  A    between atoms: _175  and  _176
REMARK   78  A    between atoms: _178  and  _180
REMARK   79  A    between atoms: _180  and  _181
REMARK   80  A    between atoms: _180  and  _183
REMARK   81  A    between atoms: _183  and  _184
REMARK   82  A    between atoms: _190  and  _192
REMARK   83  A    between atoms: _192  and  _193
REMARK   84  A    between atoms: _192  and  _195
REMARK   85  A    between atoms: _195  and  _196
REMARK   86  A    between atoms: _199  and  _201
REMARK   87  A    between atoms: _201  and  _202
REMARK   88  A    between atoms: _201  and  _204
REMARK   89  A    between atoms: _207  and  _209
REMARK   90  A    between atoms: _209  and  _210
REMARK   91  A    between atoms: _209  and  _212
REMARK   92  A    between atoms: _212  and  _213
REMARK   93  A    between atoms: _216  and  _218
REMARK   94  A    between atoms: _218  and  _219
REMARK   95  A    between atoms: _218  and  _221
REMARK   96  A    between atoms: _221  and  _222
REMARK   97  A    between atoms: _226  and  _227
REMARK   98  A    between atoms: _232  and  _234
REMARK   99  A    between atoms: _234  and  _235
REMARK  100  A    between atoms: _234  and  _237
REMARK  101  A    between atoms: _240  and  _242
REMARK  102  A    between atoms: _242  and  _243
REMARK  103  A    between atoms: _242  and  _245
REMARK  104  A    between atoms: _245  and  _246
REMARK  105  A    between atoms: _251  and  _253
REMARK  106  A    between atoms: _253  and  _254
REMARK  107  A    between atoms: _253  and  _256
REMARK  108  A    between atoms: _256  and  _257
REMARK  109  A    between atoms: _260  and  _262
REMARK  110  A    between atoms: _262  and  _263
REMARK  111  A    between atoms: _262  and  _265
REMARK  112  A    between atoms: _265  and  _266
REMARK  113  A    between atoms: _269  and  _271
REMARK  114  A    between atoms: _271  and  _272
REMARK  115  A    between atoms: _274  and  _276
REMARK  116  A    between atoms: _276  and  _277
REMARK  117  A    between atoms: _276  and  _279
REMARK  118  A    between atoms: _279  and  _280
REMARK  119  A    between atoms: _280  and  _281
REMARK  120  A    between atoms: _281  and  _282
REMARK  121  A    between atoms: _291  and  _293
REMARK  122  A    between atoms: _293  and  _294
REMARK  123  A    between atoms: _293  and  _296
REMARK  124  A    between atoms: _296  and  _297
REMARK  125  A    between atoms: _302  and  _304
REMARK  126  A    between atoms: _304  and  _305
REMARK  127  A    between atoms: _304  and  _307
REMARK  128  A    between atoms: _307  and  _308
REMARK  129  A    between atoms: _308  and  _309
REMARK  130  A    between atoms: _309  and  _310
REMARK  131  A    between atoms: _319  and  _321
REMARK  132  A    between atoms: _321  and  _322
REMARK  133  A    between atoms: _321  and  _324
REMARK  134  A    between atoms: _324  and  _325
REMARK  135  A    between atoms: _328  and  _330
REMARK  136  A    between atoms: _330  and  _331
REMARK  137  A    between atoms: _330  and  _333
REMARK  138  A    between atoms: _333  and  _334
REMARK  139  A    between atoms: _337  and  _339
REMARK  140  A    between atoms: _339  and  _340
REMARK  141  A    between atoms: _339  and  _342
REMARK  142  A    between atoms: _342  and  _343
REMARK  143  A    between atoms: _346  and  _348
REMARK  144  A    between atoms: _348  and  _349
REMARK  145  A    between atoms: _348  and  _351
REMARK  146  A    between atoms: _351  and  _352
REMARK  147  A    between atoms: _355  and  _357
REMARK  148  A    between atoms: _357  and  _358
REMARK  149  A    between atoms: _357  and  _360
REMARK  150  A    between atoms: _360  and  _361
REMARK  151  A    between atoms: _364  and  _366
REMARK  152  A    between atoms: _366  and  _367
REMARK  153  A    between atoms: _369  and  _371
REMARK  154  A    between atoms: _371  and  _372
REMARK  155  A    between atoms: _375  and  _377
REMARK  156  A    between atoms: _377  and  _378
REMARK  157  A    between atoms: _377  and  _380
REMARK  158  A    between atoms: _380  and  _381
REMARK  159  A    between atoms: _384  and  _386
REMARK  160  A    between atoms: _386  and  _387
REMARK  161  A    between atoms: _386  and  _389
REMARK  162  A    between atoms: _389  and  _390
REMARK  163  A    between atoms: _393  and  _395
REMARK  164  A    between atoms: _395  and  _396
REMARK  165  A    between atoms: _395  and  _398
REMARK  166  A    between atoms: _398  and  _399
REMARK  167  A    between atoms: _402  and  _404
REMARK  168  A    between atoms: _404  and  _405
REMARK  169  A    between atoms: _404  and  _407
REMARK  170  A    between atoms: _410  and  _412
REMARK  171  A    between atoms: _412  and  _413
REMARK  172  A    between atoms: _412  and  _415
REMARK  173  A    between atoms: _415  and  _416
REMARK  174  A    between atoms: _419  and  _421
REMARK  175  A    between atoms: _421  and  _422
REMARK  176  A    between atoms: _421  and  _424
REMARK  177  A    between atoms: _424  and  _425
REMARK  178  A    between atoms: _425  and  _426
REMARK  179  A    between atoms: _426  and  _427
REMARK  180  A    between atoms: _427  and  _428
REMARK  181  A    between atoms: _432  and  _434
REMARK  182  A    between atoms: _434  and  _435
REMARK  183  A    between atoms: _434  and  _437
REMARK  184  A    between atoms: _437  and  _438
REMARK  185  A    between atoms: _438  and  _439
REMARK  186  A    between atoms: _441  and  _443
REMARK  187  A    between atoms: _443  and  _444
REMARK  188  A    between atoms: _443  and  _446
REMARK  189  A    between atoms: _446  and  _447
REMARK  190  A    between atoms: _450  and  _452
REMARK  191  A    between atoms: _452  and  _453
REMARK  192  A    between atoms: _455  and  _457
REMARK  193  A    between atoms: _457  and  _458
REMARK  194  A    between atoms: _460  and  _462
REMARK  195  A    between atoms: _462  and  _463
REMARK  196  A    between atoms: _462  and  _465
REMARK  197  A    between atoms: _465  and  _466
REMARK  198  A    between atoms: _469  and  _471
REMARK  199  A    between atoms: _471  and  _472
REMARK  200  A    between atoms: _474  and  _476
REMARK  201  A    between atoms: _476  and  _477
REMARK  202  A    between atoms: _479  and  _481
REMARK  203  A    between atoms: _481  and  _482
REMARK  204  A    between atoms: _481  and  _484
REMARK  205  A    between atoms: _484  and  _485
REMARK  206  A    between atoms: _491  and  _493
REMARK  207  A    between atoms: _493  and  _494
REMARK  208  A    between atoms: _493  and  _496
REMARK  209  A    between atoms: _496  and  _497
REMARK  210  A    between atoms: _500  and  _502
REMARK  211  A    between atoms: _502  and  _503
REMARK  212  A    between atoms: _502  and  _505
REMARK  213  A    between atoms: _508  and  _510
REMARK  214  A    between atoms: _510  and  _511
REMARK  215  A    between atoms: _510  and  _513
REMARK  216  A    between atoms: _513  and  _514
REMARK  217  A    between atoms: _517  and  _519
REMARK  218  A    between atoms: _519  and  _520
REMARK  219  A    between atoms: _519  and  _522
REMARK  220  A    between atoms: _522  and  _523
REMARK  221  A    between atoms: _527  and  _528
REMARK  222  A    between atoms: _533  and  _535
REMARK  223  A    between atoms: _535  and  _536
REMARK  224  A    between atoms: _535  and  _538
REMARK  225  A    between atoms: _541  and  _543
REMARK  226  A    between atoms: _543  and  _544
REMARK  227  A    between atoms: _543  and  _546
REMARK  228  A    between atoms: _546  and  _547
REMARK  229  A    between atoms: _552  and  _554
REMARK  230  A    between atoms: _554  and  _555
REMARK  231  A    between atoms: _554  and  _557
REMARK  232  A    between atoms: _557  and  _558
REMARK  233  A    between atoms: _561  and  _563
REMARK  234  A    between atoms: _563  and  _564
REMARK  235  A    between atoms: _563  and  _566
REMARK  236  A    between atoms: _566  and  _567
REMARK  237  A    between atoms: _570  and  _572
REMARK  238  A    between atoms: _572  and  _573
REMARK  239  A    between atoms: _575  and  _577
REMARK  240  A    between atoms: _577  and  _578
REMARK  241  A    between atoms: _577  and  _580
REMARK  242  A    between atoms: _580  and  _581
REMARK  243  A    between atoms: _581  and  _582
REMARK  244  A    between atoms: _582  and  _583
REMARK  245  A    between atoms: _592  and  _594
REMARK  246  A    between atoms: _594  and  _595
REMARK  247  A    between atoms: _594  and  _597
REMARK  248  A    between atoms: _597  and  _598
REMARK                            x       y       z     vdW  Elec       q    Type
REMARK                         _______ _______ _______ _____ _____    ______ ____
ROOT
ATOM      1  O   HOH     1       6.352  26.210  -5.301  0.00  0.00    +0.000 OA
ENDROOT
TORSDOF 0
REMARK  Name = ../refined-set-2016/1d4i/1d4i_pocket.pdb
REMARK  248 active torsions:
REMARK  status: ('A' for Active; 'I' for Inactive)
REMARK    1  A    between atoms: _1  and  _3
REMARK    2  A    between atoms: _3  and  _4
REMARK    3  A    between atoms: _3  and  _6
REMARK    4  A    between atoms: _6  and  _7
REMARK    5  A    between atoms: _7  and  _8
REMARK    6  A    between atoms: _8  and  _9
REMARK    7  A    between atoms: _18  and  _20
REMARK    8  A    between atoms: _20  and  _21
REMARK    9  A    between atoms: _20  and  _23
REMARK   10  A    between atoms: _23  and  _24
REMARK   11  A    between atoms: _27  and  _29
REMARK   12  A    between atoms: _29  and  _30
REMARK   13  A    between atoms: _29  and  _32
REMARK   14  A    between atoms: _32  and  _33
REMARK   15  A    between atoms: _36  and  _38
REMARK   16  A    between atoms: _38  and  _39
REMARK   17  A    between atoms: _38  and  _41
REMARK   18  A    between atoms: _41  and  _42
REMARK   19  A    between atoms: _45  and  _47
REMARK   20  A    between atoms: _47  and  _48
REMARK   21  A    between atoms: _47  and  _50
REMARK   22  A    between atoms: _50  and  _51
REMARK   23  A    between atoms: _54  and  _56
REMARK   24  A    between atoms: _56  and  _57
REMARK   25  A    between atoms: _56  and  _59
REMARK   26  A    between atoms: _59  and  _60
REMARK   27  A    between atoms: _63  and  _65
REMARK   28  A    between atoms: _65  and  _66
REMARK   29  A    between atoms: _68  and  _70
REMARK   30  A    between atoms: _70  and  _71
REMARK   31  A    between atoms: _74  and  _76
REMARK   32  A    between atoms: _76  and  _77
REMARK   33  A    between atoms: _76  and  _79
REMARK   34  A    between atoms: _79  and  _80
REMARK   35  A    between atoms: _83  and  _85
REMARK   36  A    between atoms: _85  and  _86
REMARK   37  A    between atoms: _85  and  _88
REMARK   38  A    between atoms: _88  and  _89
REMARK   39  A    between atoms: _92  and  _94
REMARK   40  A    between atoms: _94  and  _95
REMARK   41  A    between atoms: _94  and  _97
REMARK   42  A    between atoms: _97  and  _98
REMARK   43  A    between atoms: _101  and  _103
REMARK   44  A    between atoms: _103  and  _104
REMARK   45  A    between atoms: _103  and  _106
REMARK   46  A    between atoms: _109  and  _111
REMARK   47  A    between atoms: _111  and  _112
REMARK   48  A    between atoms: _111  and  _114
REMARK   49  A    between atoms: _114  and  _115
REMARK   50  A    between atoms: _118  and  _120
REMARK   51  A    between atoms: _120  and  _121
REMARK   52  A    between atoms: _120  and  _123
REMARK   53  A    between atoms: _123  and  _124
REMARK   54  A    between atoms: _124  and  _125
REMARK   55  A    between atoms: _125  and  _126
REMARK   56  A    between atoms: _126  and  _127
REMARK   57  A    between atoms: _131  and  _133
REMARK   58  A    between atoms: _133  and  _134
REMARK   59  A    between atoms: _133  and  _136
REMARK   60  A    between atoms: _136  and  _137
REMARK   61  A    between atoms: _137  and  _138
REMARK   62  A    between atoms: _140  and  _142
REMARK   63  A    between atoms: _142  and  _143
REMARK   64  A    between atoms: _142  and  _145
REMARK   65  A    between atoms: _145  and  _146
REMARK   66  A    between atoms: _149  and  _151
REMARK   67  A    between atoms: _151  and  _152
REMARK   68  A    between atoms: _154  and  _156
REMARK   69  A    between atoms: _156  and  _157
REMARK   70  A    between atoms: _159  and  _161
REMARK   71  A    between atoms: _161  and  _162
REMARK   72  A    between atoms: _161  and  _164
REMARK   73  A    between atoms: _164  and  _165
REMARK   74  A    between atoms: _168  and  _170
REMARK   75  A    between atoms: _170  and  _171
REMARK   76  A    between atoms: _173  and  _175
REMARK   77  A    between atoms: _175  and  _176
REMARK   78  A    between atoms: _178  and  _180
REMARK   79  A    between atoms: _180  and  _181
REMARK   80  A    between atoms: _180  and  _183
REMARK   81  A    between atoms: _183  and  _184
REMARK   82  A    between atoms: _190  and  _192
REMARK   83  A    between atoms: _192  and  _193
REMARK   84  A    between atoms: _192  and  _195
REMARK   85  A    between atoms: _195  and  _196
REMARK   86  A    between atoms: _199  and  _201
REMARK   87  A    between atoms: _201  and  _202
REMARK   88  A    between atoms: _201  and  _204
REMARK   89  A    between atoms: _207  and  _209
REMARK   90  A    between atoms: _209  and  _210
REMARK   91  A    between atoms: _209  and  _212
REMARK   92  A    between atoms: _212  and  _213
REMARK   93  A    between atoms: _216  and  _218
REMARK   94  A    between atoms: _218  and  _219
REMARK   95  A    between atoms: _218  and  _221
REMARK   96  A    between atoms: _221  and  _222
REMARK   97  A    between atoms: _226  and  _227
REMARK   98  A    between atoms: _232  and  _234
REMARK   99  A    between atoms: _234  and  _235
REMARK  100  A    between atoms: _234  and  _237
REMARK  101  A    between atoms: _240  and  _242
REMARK  102  A    between atoms: _242  and  _243
REMARK  103  A    between atoms: _242  and  _245
REMARK  104  A    between atoms: _245  and  _246
REMARK  105  A    between atoms: _251  and  _253
REMARK  106  A    between atoms: _253  and  _254
REMARK  107  A    between atoms: _253  and  _256
REMARK  108  A    between atoms: _256  and  _257
REMARK  109  A    between atoms: _260  and  _262
REMARK  110  A    between atoms: _262  and  _263
REMARK  111  A    between atoms: _262  and  _265
REMARK  112  A    between atoms: _265  and  _266
REMARK  113  A    between atoms: _269  and  _271
REMARK  114  A    between atoms: _271  and  _272
REMARK  115  A    between atoms: _274  and  _276
REMARK  116  A    between atoms: _276  and  _277
REMARK  117  A    between atoms: _276  and  _279
REMARK  118  A    between atoms: _279  and  _280
REMARK  119  A    between atoms: _280  and  _281
REMARK  120  A    between atoms: _281  and  _282
REMARK  121  A    between atoms: _291  and  _293
REMARK  122  A    between atoms: _293  and  _294
REMARK  123  A    between atoms: _293  and  _296
REMARK  124  A    between atoms: _296  and  _297
REMARK  125  A    between atoms: _302  and  _304
REMARK  126  A    between atoms: _304  and  _305
REMARK  127  A    between atoms: _304  and  _307
REMARK  128  A    between atoms: _307  and  _308
REMARK  129  A    between atoms: _308  and  _309
REMARK  130  A    between atoms: _309  and  _310
REMARK  131  A    between atoms: _319  and  _321
REMARK  132  A    between atoms: _321  and  _322
REMARK  133  A    between atoms: _321  and  _324
REMARK  134  A    between atoms: _324  and  _325
REMARK  135  A    between atoms: _328  and  _330
REMARK  136  A    between atoms: _330  and  _331
REMARK  137  A    between atoms: _330  and  _333
REMARK  138  A    between atoms: _333  and  _334
REMARK  139  A    between atoms: _337  and  _339
REMARK  140  A    between atoms: _339  and  _340
REMARK  141  A    between atoms: _339  and  _342
REMARK  142  A    between atoms: _342  and  _343
REMARK  143  A    between atoms: _346  and  _348
REMARK  144  A    between atoms: _348  and  _349
REMARK  145  A    between atoms: _348  and  _351
REMARK  146  A    between atoms: _351  and  _352
REMARK  147  A    between atoms: _355  and  _357
REMARK  148  A    between atoms: _357  and  _358
REMARK  149  A    between atoms: _357  and  _360
REMARK  150  A    between atoms: _360  and  _361
REMARK  151  A    between atoms: _364  and  _366
REMARK  152  A    between atoms: _366  and  _367
REMARK  153  A    between atoms: _369  and  _371
REMARK  154  A    between atoms: _371  and  _372
REMARK  155  A    between atoms: _375  and  _377
REMARK  156  A    between atoms: _377  and  _378
REMARK  157  A    between atoms: _377  and  _380
REMARK  158  A    between atoms: _380  and  _381
REMARK  159  A    between atoms: _384  and  _386
REMARK  160  A    between atoms: _386  and  _387
REMARK  161  A    between atoms: _386  and  _389
REMARK  162  A    between atoms: _389  and  _390
REMARK  163  A    between atoms: _393  and  _395
REMARK  164  A    between atoms: _395  and  _396
REMARK  165  A    between atoms: _395  and  _398
REMARK  166  A    between atoms: _398  and  _399
REMARK  167  A    between atoms: _402  and  _404
REMARK  168  A    between atoms: _404  and  _405
REMARK  169  A    between atoms: _404  and  _407
REMARK  170  A    between atoms: _410  and  _412
REMARK  171  A    between atoms: _412  and  _413
REMARK  172  A    between atoms: _412  and  _415
REMARK  173  A    between atoms: _415  and  _416
REMARK  174  A    between atoms: _419  and  _421
REMARK  175  A    between atoms: _421  and  _422
REMARK  176  A    between atoms: _421  and  _424
REMARK  177  A    between atoms: _424  and  _425
REMARK  178  A    between atoms: _425  and  _426
REMARK  179  A    between atoms: _426  and  _427
REMARK  180  A    between atoms: _427  and  _428
REMARK  181  A    between atoms: _432  and  _434
REMARK  182  A    between atoms: _434  and  _435
REMARK  183  A    between atoms: _434  and  _437
REMARK  184  A    between atoms: _437  and  _438
REMARK  185  A    between atoms: _438  and  _439
REMARK  186  A    between atoms: _441  and  _443
REMARK  187  A    between atoms: _443  and  _444
REMARK  188  A    between atoms: _443  and  _446
REMARK  189  A    between atoms: _446  and  _447
REMARK  190  A    between atoms: _450  and  _452
REMARK  191  A    between atoms: _452  and  _453
REMARK  192  A    between atoms: _455  and  _457
REMARK  193  A    between atoms: _457  and  _458
REMARK  194  A    between atoms: _460  and  _462
REMARK  195  A    between atoms: _462  and  _463
REMARK  196  A    between atoms: _462  and  _465
REMARK  197  A    between atoms: _465  and  _466
REMARK  198  A    between atoms: _469  and  _471
REMARK  199  A    between atoms: _471  and  _472
REMARK  200  A    between atoms: _474  and  _476
REMARK  201  A    between atoms: _476  and  _477
REMARK  202  A    between atoms: _479  and  _481
REMARK  203  A    between atoms: _481  and  _482
REMARK  204  A    between atoms: _481  and  _484
REMARK  205  A    between atoms: _484  and  _485
REMARK  206  A    between atoms: _491  and  _493
REMARK  207  A    between atoms: _493  and  _494
REMARK  208  A    between atoms: _493  and  _496
REMARK  209  A    between atoms: _496  and  _497
REMARK  210  A    between atoms: _500  and  _502
REMARK  211  A    between atoms: _502  and  _503
REMARK  212  A    between atoms: _502  and  _505
REMARK  213  A    between atoms: _508  and  _510
REMARK  214  A    between atoms: _510  and  _511
REMARK  215  A    between atoms: _510  and  _513
REMARK  216  A    between atoms: _513  and  _514
REMARK  217  A    between atoms: _517  and  _519
REMARK  218  A    between atoms: _519  and  _520
REMARK  219  A    between atoms: _519  and  _522
REMARK  220  A    between atoms: _522  and  _523
REMARK  221  A    between atoms: _527  and  _528
REMARK  222  A    between atoms: _533  and  _535
REMARK  223  A    between atoms: _535  and  _536
REMARK  224  A    between atoms: _535  and  _538
REMARK  225  A    between atoms: _541  and  _543
REMARK  226  A    between atoms: _543  and  _544
REMARK  227  A    between atoms: _543  and  _546
REMARK  228  A    between atoms: _546  and  _547
REMARK  229  A    between atoms: _552  and  _554
REMARK  230  A    between atoms: _554  and  _555
REMARK  231  A    between atoms: _554  and  _557
REMARK  232  A    between atoms: _557  and  _558
REMARK  233  A    between atoms: _561  and  _563
REMARK  234  A    between atoms: _563  and  _564
REMARK  235  A    between atoms: _563  and  _566
REMARK  236  A    between atoms: _566  and  _567
REMARK  237  A    between atoms: _570  and  _572
REMARK  238  A    between atoms: _572  and  _573
REMARK  239  A    between atoms: _575  and  _577
REMARK  240  A    between atoms: _577  and  _578
REMARK  241  A    between atoms: _577  and  _580
REMARK  242  A    between atoms: _580  and  _581
REMARK  243  A    between atoms: _581  and  _582
REMARK  244  A    between atoms: _582  and  _583
REMARK  245  A    between atoms: _592  and  _594
REMARK  246  A    between atoms: _594  and  _595
REMARK  247  A    between atoms: _594  and  _597
REMARK  248  A    between atoms: _597  and  _598
REMARK                            x       y       z     vdW  Elec       q    Type
REMARK                         _______ _______ _______ _____ _____    ______ ____
ROOT
ATOM      1  O   HOH     1      13.784  15.675  11.305  0.00  0.00    +0.000 OA
ENDROOT
TORSDOF 0
REMARK  Name = ../refined-set-2016/1d4i/1d4i_pocket.pdb
REMARK  248 active torsions:
REMARK  status: ('A' for Active; 'I' for Inactive)
REMARK    1  A    between atoms: _1  and  _3
REMARK    2  A    between atoms: _3  and  _4
REMARK    3  A    between atoms: _3  and  _6
REMARK    4  A    between atoms: _6  and  _7
REMARK    5  A    between atoms: _7  and  _8
REMARK    6  A    between atoms: _8  and  _9
REMARK    7  A    between atoms: _18  and  _20
REMARK    8  A    between atoms: _20  and  _21
REMARK    9  A    between atoms: _20  and  _23
REMARK   10  A    between atoms: _23  and  _24
REMARK   11  A    between atoms: _27  and  _29
REMARK   12  A    between atoms: _29  and  _30
REMARK   13  A    between atoms: _29  and  _32
REMARK   14  A    between atoms: _32  and  _33
REMARK   15  A    between atoms: _36  and  _38
REMARK   16  A    between atoms: _38  and  _39
REMARK   17  A    between atoms: _38  and  _41
REMARK   18  A    between atoms: _41  and  _42
REMARK   19  A    between atoms: _45  and  _47
REMARK   20  A    between atoms: _47  and  _48
REMARK   21  A    between atoms: _47  and  _50
REMARK   22  A    between atoms: _50  and  _51
REMARK   23  A    between atoms: _54  and  _56
REMARK   24  A    between atoms: _56  and  _57
REMARK   25  A    between atoms: _56  and  _59
REMARK   26  A    between atoms: _59  and  _60
REMARK   27  A    between atoms: _63  and  _65
REMARK   28  A    between atoms: _65  and  _66
REMARK   29  A    between atoms: _68  and  _70
REMARK   30  A    between atoms: _70  and  _71
REMARK   31  A    between atoms: _74  and  _76
REMARK   32  A    between atoms: _76  and  _77
REMARK   33  A    between atoms: _76  and  _79
REMARK   34  A    between atoms: _79  and  _80
REMARK   35  A    between atoms: _83  and  _85
REMARK   36  A    between atoms: _85  and  _86
REMARK   37  A    between atoms: _85  and  _88
REMARK   38  A    between atoms: _88  and  _89
REMARK   39  A    between atoms: _92  and  _94
REMARK   40  A    between atoms: _94  and  _95
REMARK   41  A    between atoms: _94  and  _97
REMARK   42  A    between atoms: _97  and  _98
REMARK   43  A    between atoms: _101  and  _103
REMARK   44  A    between atoms: _103  and  _104
REMARK   45  A    between atoms: _103  and  _106
REMARK   46  A    between atoms: _109  and  _111
REMARK   47  A    between atoms: _111  and  _112
REMARK   48  A    between atoms: _111  and  _114
REMARK   49  A    between atoms: _114  and  _115
REMARK   50  A    between atoms: _118  and  _120
REMARK   51  A    between atoms: _120  and  _121
REMARK   52  A    between atoms: _120  and  _123
REMARK   53  A    between atoms: _123  and  _124
REMARK   54  A    between atoms: _124  and  _125
REMARK   55  A    between atoms: _125  and  _126
REMARK   56  A    between atoms: _126  and  _127
REMARK   57  A    between atoms: _131  and  _133
REMARK   58  A    between atoms: _133  and  _134
REMARK   59  A    between atoms: _133  and  _136
REMARK   60  A    between atoms: _136  and  _137
REMARK   61  A    between atoms: _137  and  _138
REMARK   62  A    between atoms: _140  and  _142
REMARK   63  A    between atoms: _142  and  _143
REMARK   64  A    between atoms: _142  and  _145
REMARK   65  A    between atoms: _145  and  _146
REMARK   66  A    between atoms: _149  and  _151
REMARK   67  A    between atoms: _151  and  _152
REMARK   68  A    between atoms: _154  and  _156
REMARK   69  A    between atoms: _156  and  _157
REMARK   70  A    between atoms: _159  and  _161
REMARK   71  A    between atoms: _161  and  _162
REMARK   72  A    between atoms: _161  and  _164
REMARK   73  A    between atoms: _164  and  _165
REMARK   74  A    between atoms: _168  and  _170
REMARK   75  A    between atoms: _170  and  _171
REMARK   76  A    between atoms: _173  and  _175
REMARK   77  A    between atoms: _175  and  _176
REMARK   78  A    between atoms: _178  and  _180
REMARK   79  A    between atoms: _180  and  _181
REMARK   80  A    between atoms: _180  and  _183
REMARK   81  A    between atoms: _183  and  _184
REMARK   82  A    between atoms: _190  and  _192
REMARK   83  A    between atoms: _192  and  _193
REMARK   84  A    between atoms: _192  and  _195
REMARK   85  A    between atoms: _195  and  _196
REMARK   86  A    between atoms: _199  and  _201
REMARK   87  A    between atoms: _201  and  _202
REMARK   88  A    between atoms: _201  and  _204
REMARK   89  A    between atoms: _207  and  _209
REMARK   90  A    between atoms: _209  and  _210
REMARK   91  A    between atoms: _209  and  _212
REMARK   92  A    between atoms: _212  and  _213
REMARK   93  A    between atoms: _216  and  _218
REMARK   94  A    between atoms: _218  and  _219
REMARK   95  A    between atoms: _218  and  _221
REMARK   96  A    between atoms: _221  and  _222
REMARK   97  A    between atoms: _226  and  _227
REMARK   98  A    between atoms: _232  and  _234
REMARK   99  A    between atoms: _234  and  _235
REMARK  100  A    between atoms: _234  and  _237
REMARK  101  A    between atoms: _240  and  _242
REMARK  102  A    between atoms: _242  and  _243
REMARK  103  A    between atoms: _242  and  _245
REMARK  104  A    between atoms: _245  and  _246
REMARK  105  A    between atoms: _251  and  _253
REMARK  106  A    between atoms: _253  and  _254
REMARK  107  A    between atoms: _253  and  _256
REMARK  108  A    between atoms: _256  and  _257
REMARK  109  A    between atoms: _260  and  _262
REMARK  110  A    between atoms: _262  and  _263
REMARK  111  A    between atoms: _262  and  _265
REMARK  112  A    between atoms: _265  and  _266
REMARK  113  A    between atoms: _269  and  _271
REMARK  114  A    between atoms: _271  and  _272
REMARK  115  A    between atoms: _274  and  _276
REMARK  116  A    between atoms: _276  and  _277
REMARK  117  A    between atoms: _276  and  _279
REMARK  118  A    between atoms: _279  and  _280
REMARK  119  A    between atoms: _280  and  _281
REMARK  120  A    between atoms: _281  and  _282
REMARK  121  A    between atoms: _291  and  _293
REMARK  122  A    between atoms: _293  and  _294
REMARK  123  A    between atoms: _293  and  _296
REMARK  124  A    between atoms: _296  and  _297
REMARK  125  A    between atoms: _302  and  _304
REMARK  126  A    between atoms: _304  and  _305
REMARK  127  A    between atoms: _304  and  _307
REMARK  128  A    between atoms: _307  and  _308
REMARK  129  A    between atoms: _308  and  _309
REMARK  130  A    between atoms: _309  and  _310
REMARK  131  A    between atoms: _319  and  _321
REMARK  132  A    between atoms: _321  and  _322
REMARK  133  A    between atoms: _321  and  _324
REMARK  134  A    between atoms: _324  and  _325
REMARK  135  A    between atoms: _328  and  _330
REMARK  136  A    between atoms: _330  and  _331
REMARK  137  A    between atoms: _330  and  _333
REMARK  138  A    between atoms: _333  and  _334
REMARK  139  A    between atoms: _337  and  _339
REMARK  140  A    between atoms: _339  and  _340
REMARK  141  A    between atoms: _339  and  _342
REMARK  142  A    between atoms: _342  and  _343
REMARK  143  A    between atoms: _346  and  _348
REMARK  144  A    between atoms: _348  and  _349
REMARK  145  A    between atoms: _348  and  _351
REMARK  146  A    between atoms: _351  and  _352
REMARK  147  A    between atoms: _355  and  _357
REMARK  148  A    between atoms: _357  and  _358
REMARK  149  A    between atoms: _357  and  _360
REMARK  150  A    between atoms: _360  and  _361
REMARK  151  A    between atoms: _364  and  _366
REMARK  152  A    between atoms: _366  and  _367
REMARK  153  A    between atoms: _369  and  _371
REMARK  154  A    between atoms: _371  and  _372
REMARK  155  A    between atoms: _375  and  _377
REMARK  156  A    between atoms: _377  and  _378
REMARK  157  A    between atoms: _377  and  _380
REMARK  158  A    between atoms: _380  and  _381
REMARK  159  A    between atoms: _384  and  _386
REMARK  160  A    between atoms: _386  and  _387
REMARK  161  A    between atoms: _386  and  _389
REMARK  162  A    between atoms: _389  and  _390
REMARK  163  A    between atoms: _393  and  _395
REMARK  164  A    between atoms: _395  and  _396
REMARK  165  A    between atoms: _395  and  _398
REMARK  166  A    between atoms: _398  and  _399
REMARK  167  A    between atoms: _402  and  _404
REMARK  168  A    between atoms: _404  and  _405
REMARK  169  A    between atoms: _404  and  _407
REMARK  170  A    between atoms: _410  and  _412
REMARK  171  A    between atoms: _412  and  _413
REMARK  172  A    between atoms: _412  and  _415
REMARK  173  A    between atoms: _415  and  _416
REMARK  174  A    between atoms: _419  and  _421
REMARK  175  A    between atoms: _421  and  _422
REMARK  176  A    between atoms: _421  and  _424
REMARK  177  A    between atoms: _424  and  _425
REMARK  178  A    between atoms: _425  and  _426
REMARK  179  A    between atoms: _426  and  _427
REMARK  180  A    between atoms: _427  and  _428
REMARK  181  A    between atoms: _432  and  _434
REMARK  182  A    between atoms: _434  and  _435
REMARK  183  A    between atoms: _434  and  _437
REMARK  184  A    between atoms: _437  and  _438
REMARK  185  A    between atoms: _438  and  _439
REMARK  186  A    between atoms: _441  and  _443
REMARK  187  A    between atoms: _443  and  _444
REMARK  188  A    between atoms: _443  and  _446
REMARK  189  A    between atoms: _446  and  _447
REMARK  190  A    between atoms: _450  and  _452
REMARK  191  A    between atoms: _452  and  _453
REMARK  192  A    between atoms: _455  and  _457
REMARK  193  A    between atoms: _457  and  _458
REMARK  194  A    between atoms: _460  and  _462
REMARK  195  A    between atoms: _462  and  _463
REMARK  196  A    between atoms: _462  and  _465
REMARK  197  A    between atoms: _465  and  _466
REMARK  198  A    between atoms: _469  and  _471
REMARK  199  A    between atoms: _471  and  _472
REMARK  200  A    between atoms: _474  and  _476
REMARK  201  A    between atoms: _476  and  _477
REMARK  202  A    between atoms: _479  and  _481
REMARK  203  A    between atoms: _481  and  _482
REMARK  204  A    between atoms: _481  and  _484
REMARK  205  A    between atoms: _484  and  _485
REMARK  206  A    between atoms: _491  and  _493
REMARK  207  A    between atoms: _493  and  _494
REMARK  208  A    between atoms: _493  and  _496
REMARK  209  A    between atoms: _496  and  _497
REMARK  210  A    between atoms: _500  and  _502
REMARK  211  A    between atoms: _502  and  _503
REMARK  212  A    between atoms: _502  and  _505
REMARK  213  A    between atoms: _508  and  _510
REMARK  214  A    between atoms: _510  and  _511
REMARK  215  A    between atoms: _510  and  _513
REMARK  216  A    between atoms: _513  and  _514
REMARK  217  A    between atoms: _517  and  _519
REMARK  218  A    between atoms: _519  and  _520
REMARK  219  A    between atoms: _519  and  _522
REMARK  220  A    between atoms: _522  and  _523
REMARK  221  A    between atoms: _527  and  _528
REMARK  222  A    between atoms: _533  and  _535
REMARK  223  A    between atoms: _535  and  _536
REMARK  224  A    between atoms: _535  and  _538
REMARK  225  A    between atoms: _541  and  _543
REMARK  226  A    between atoms: _543  and  _544
REMARK  227  A    between atoms: _543  and  _546
REMARK  228  A    between atoms: _546  and  _547
REMARK  229  A    between atoms: _552  and  _554
REMARK  230  A    between atoms: _554  and  _555
REMARK  231  A    between atoms: _554  and  _557
REMARK  232  A    between atoms: _557  and  _558
REMARK  233  A    between atoms: _561  and  _563
REMARK  234  A    between atoms: _563  and  _564
REMARK  235  A    between atoms: _563  and  _566
REMARK  236  A    between atoms: _566  and  _567
REMARK  237  A    between atoms: _570  and  _572
REMARK  238  A    between atoms: _572  and  _573
REMARK  239  A    between atoms: _575  and  _577
REMARK  240  A    between atoms: _577  and  _578
REMARK  241  A    between atoms: _577  and  _580
REMARK  242  A    between atoms: _580  and  _581
REMARK  243  A    between atoms: _581  and  _582
REMARK  244  A    between atoms: _582  and  _583
REMARK  245  A    between atoms: _592  and  _594
REMARK  246  A    between atoms: _594  and  _595
REMARK  247  A    between atoms: _594  and  _597
REMARK  248  A    between atoms: _597  and  _598
REMARK                            x       y       z     vdW  Elec       q    Type
REMARK                         _______ _______ _______ _____ _____    ______ ____
ROOT
ATOM      1  O   HOH     1      18.301  14.263   6.649  0.00  0.00    +0.000 OA
ENDROOT
TORSDOF 0
REMARK  Name = ../refined-set-2016/1d4i/1d4i_pocket.pdb
REMARK  248 active torsions:
REMARK  status: ('A' for Active; 'I' for Inactive)
REMARK    1  A    between atoms: _1  and  _3
REMARK    2  A    between atoms: _3  and  _4
REMARK    3  A    between atoms: _3  and  _6
REMARK    4  A    between atoms: _6  and  _7
REMARK    5  A    between atoms: _7  and  _8
REMARK    6  A    between atoms: _8  and  _9
REMARK    7  A    between atoms: _18  and  _20
REMARK    8  A    between atoms: _20  and  _21
REMARK    9  A    between atoms: _20  and  _23
REMARK   10  A    between atoms: _23  and  _24
REMARK   11  A    between atoms: _27  and  _29
REMARK   12  A    between atoms: _29  and  _30
REMARK   13  A    between atoms: _29  and  _32
REMARK   14  A    between atoms: _32  and  _33
REMARK   15  A    between atoms: _36  and  _38
REMARK   16  A    between atoms: _38  and  _39
REMARK   17  A    between atoms: _38  and  _41
REMARK   18  A    between atoms: _41  and  _42
REMARK   19  A    between atoms: _45  and  _47
REMARK   20  A    between atoms: _47  and  _48
REMARK   21  A    between atoms: _47  and  _50
REMARK   22  A    between atoms: _50  and  _51
REMARK   23  A    between atoms: _54  and  _56
REMARK   24  A    between atoms: _56  and  _57
REMARK   25  A    between atoms: _56  and  _59
REMARK   26  A    between atoms: _59  and  _60
REMARK   27  A    between atoms: _63  and  _65
REMARK   28  A    between atoms: _65  and  _66
REMARK   29  A    between atoms: _68  and  _70
REMARK   30  A    between atoms: _70  and  _71
REMARK   31  A    between atoms: _74  and  _76
REMARK   32  A    between atoms: _76  and  _77
REMARK   33  A    between atoms: _76  and  _79
REMARK   34  A    between atoms: _79  and  _80
REMARK   35  A    between atoms: _83  and  _85
REMARK   36  A    between atoms: _85  and  _86
REMARK   37  A    between atoms: _85  and  _88
REMARK   38  A    between atoms: _88  and  _89
REMARK   39  A    between atoms: _92  and  _94
REMARK   40  A    between atoms: _94  and  _95
REMARK   41  A    between atoms: _94  and  _97
REMARK   42  A    between atoms: _97  and  _98
REMARK   43  A    between atoms: _101  and  _103
REMARK   44  A    between atoms: _103  and  _104
REMARK   45  A    between atoms: _103  and  _106
REMARK   46  A    between atoms: _109  and  _111
REMARK   47  A    between atoms: _111  and  _112
REMARK   48  A    between atoms: _111  and  _114
REMARK   49  A    between atoms: _114  and  _115
REMARK   50  A    between atoms: _118  and  _120
REMARK   51  A    between atoms: _120  and  _121
REMARK   52  A    between atoms: _120  and  _123
REMARK   53  A    between atoms: _123  and  _124
REMARK   54  A    between atoms: _124  and  _125
REMARK   55  A    between atoms: _125  and  _126
REMARK   56  A    between atoms: _126  and  _127
REMARK   57  A    between atoms: _131  and  _133
REMARK   58  A    between atoms: _133  and  _134
REMARK   59  A    between atoms: _133  and  _136
REMARK   60  A    between atoms: _136  and  _137
REMARK   61  A    between atoms: _137  and  _138
REMARK   62  A    between atoms: _140  and  _142
REMARK   63  A    between atoms: _142  and  _143
REMARK   64  A    between atoms: _142  and  _145
REMARK   65  A    between atoms: _145  and  _146
REMARK   66  A    between atoms: _149  and  _151
REMARK   67  A    between atoms: _151  and  _152
REMARK   68  A    between atoms: _154  and  _156
REMARK   69  A    between atoms: _156  and  _157
REMARK   70  A    between atoms: _159  and  _161
REMARK   71  A    between atoms: _161  and  _162
REMARK   72  A    between atoms: _161  and  _164
REMARK   73  A    between atoms: _164  and  _165
REMARK   74  A    between atoms: _168  and  _170
REMARK   75  A    between atoms: _170  and  _171
REMARK   76  A    between atoms: _173  and  _175
REMARK   77  A    between atoms: _175  and  _176
REMARK   78  A    between atoms: _178  and  _180
REMARK   79  A    between atoms: _180  and  _181
REMARK   80  A    between atoms: _180  and  _183
REMARK   81  A    between atoms: _183  and  _184
REMARK   82  A    between atoms: _190  and  _192
REMARK   83  A    between atoms: _192  and  _193
REMARK   84  A    between atoms: _192  and  _195
REMARK   85  A    between atoms: _195  and  _196
REMARK   86  A    between atoms: _199  and  _201
REMARK   87  A    between atoms: _201  and  _202
REMARK   88  A    between atoms: _201  and  _204
REMARK   89  A    between atoms: _207  and  _209
REMARK   90  A    between atoms: _209  and  _210
REMARK   91  A    between atoms: _209  and  _212
REMARK   92  A    between atoms: _212  and  _213
REMARK   93  A    between atoms: _216  and  _218
REMARK   94  A    between atoms: _218  and  _219
REMARK   95  A    between atoms: _218  and  _221
REMARK   96  A    between atoms: _221  and  _222
REMARK   97  A    between atoms: _226  and  _227
REMARK   98  A    between atoms: _232  and  _234
REMARK   99  A    between atoms: _234  and  _235
REMARK  100  A    between atoms: _234  and  _237
REMARK  101  A    between atoms: _240  and  _242
REMARK  102  A    between atoms: _242  and  _243
REMARK  103  A    between atoms: _242  and  _245
REMARK  104  A    between atoms: _245  and  _246
REMARK  105  A    between atoms: _251  and  _253
REMARK  106  A    between atoms: _253  and  _254
REMARK  107  A    between atoms: _253  and  _256
REMARK  108  A    between atoms: _256  and  _257
REMARK  109  A    between atoms: _260  and  _262
REMARK  110  A    between atoms: _262  and  _263
REMARK  111  A    between atoms: _262  and  _265
REMARK  112  A    between atoms: _265  and  _266
REMARK  113  A    between atoms: _269  and  _271
REMARK  114  A    between atoms: _271  and  _272
REMARK  115  A    between atoms: _274  and  _276
REMARK  116  A    between atoms: _276  and  _277
REMARK  117  A    between atoms: _276  and  _279
REMARK  118  A    between atoms: _279  and  _280
REMARK  119  A    between atoms: _280  and  _281
REMARK  120  A    between atoms: _281  and  _282
REMARK  121  A    between atoms: _291  and  _293
REMARK  122  A    between atoms: _293  and  _294
REMARK  123  A    between atoms: _293  and  _296
REMARK  124  A    between atoms: _296  and  _297
REMARK  125  A    between atoms: _302  and  _304
REMARK  126  A    between atoms: _304  and  _305
REMARK  127  A    between atoms: _304  and  _307
REMARK  128  A    between atoms: _307  and  _308
REMARK  129  A    between atoms: _308  and  _309
REMARK  130  A    between atoms: _309  and  _310
REMARK  131  A    between atoms: _319  and  _321
REMARK  132  A    between atoms: _321  and  _322
REMARK  133  A    between atoms: _321  and  _324
REMARK  134  A    between atoms: _324  and  _325
REMARK  135  A    between atoms: _328  and  _330
REMARK  136  A    between atoms: _330  and  _331
REMARK  137  A    between atoms: _330  and  _333
REMARK  138  A    between atoms: _333  and  _334
REMARK  139  A    between atoms: _337  and  _339
REMARK  140  A    between atoms: _339  and  _340
REMARK  141  A    between atoms: _339  and  _342
REMARK  142  A    between atoms: _342  and  _343
REMARK  143  A    between atoms: _346  and  _348
REMARK  144  A    between atoms: _348  and  _349
REMARK  145  A    between atoms: _348  and  _351
REMARK  146  A    between atoms: _351  and  _352
REMARK  147  A    between atoms: _355  and  _357
REMARK  148  A    between atoms: _357  and  _358
REMARK  149  A    between atoms: _357  and  _360
REMARK  150  A    between atoms: _360  and  _361
REMARK  151  A    between atoms: _364  and  _366
REMARK  152  A    between atoms: _366  and  _367
REMARK  153  A    between atoms: _369  and  _371
REMARK  154  A    between atoms: _371  and  _372
REMARK  155  A    between atoms: _375  and  _377
REMARK  156  A    between atoms: _377  and  _378
REMARK  157  A    between atoms: _377  and  _380
REMARK  158  A    between atoms: _380  and  _381
REMARK  159  A    between atoms: _384  and  _386
REMARK  160  A    between atoms: _386  and  _387
REMARK  161  A    between atoms: _386  and  _389
REMARK  162  A    between atoms: _389  and  _390
REMARK  163  A    between atoms: _393  and  _395
REMARK  164  A    between atoms: _395  and  _396
REMARK  165  A    between atoms: _395  and  _398
REMARK  166  A    between atoms: _398  and  _399
REMARK  167  A    between atoms: _402  and  _404
REMARK  168  A    between atoms: _404  and  _405
REMARK  169  A    between atoms: _404  and  _407
REMARK  170  A    between atoms: _410  and  _412
REMARK  171  A    between atoms: _412  and  _413
REMARK  172  A    between atoms: _412  and  _415
REMARK  173  A    between atoms: _415  and  _416
REMARK  174  A    between atoms: _419  and  _421
REMARK  175  A    between atoms: _421  and  _422
REMARK  176  A    between atoms: _421  and  _424
REMARK  177  A    between atoms: _424  and  _425
REMARK  178  A    between atoms: _425  and  _426
REMARK  179  A    between atoms: _426  and  _427
REMARK  180  A    between atoms: _427  and  _428
REMARK  181  A    between atoms: _432  and  _434
REMARK  182  A    between atoms: _434  and  _435
REMARK  183  A    between atoms: _434  and  _437
REMARK  184  A    between atoms: _437  and  _438
REMARK  185  A    between atoms: _438  and  _439
REMARK  186  A    between atoms: _441  and  _443
REMARK  187  A    between atoms: _443  and  _444
REMARK  188  A    between atoms: _443  and  _446
REMARK  189  A    between atoms: _446  and  _447
REMARK  190  A    between atoms: _450  and  _452
REMARK  191  A    between atoms: _452  and  _453
REMARK  192  A    between atoms: _455  and  _457
REMARK  193  A    between atoms: _457  and  _458
REMARK  194  A    between atoms: _460  and  _462
REMARK  195  A    between atoms: _462  and  _463
REMARK  196  A    between atoms: _462  and  _465
REMARK  197  A    between atoms: _465  and  _466
REMARK  198  A    between atoms: _469  and  _471
REMARK  199  A    between atoms: _471  and  _472
REMARK  200  A    between atoms: _474  and  _476
REMARK  201  A    between atoms: _476  and  _477
REMARK  202  A    between atoms: _479  and  _481
REMARK  203  A    between atoms: _481  and  _482
REMARK  204  A    between atoms: _481  and  _484
REMARK  205  A    between atoms: _484  and  _485
REMARK  206  A    between atoms: _491  and  _493
REMARK  207  A    between atoms: _493  and  _494
REMARK  208  A    between atoms: _493  and  _496
REMARK  209  A    between atoms: _496  and  _497
REMARK  210  A    between atoms: _500  and  _502
REMARK  211  A    between atoms: _502  and  _503
REMARK  212  A    between atoms: _502  and  _505
REMARK  213  A    between atoms: _508  and  _510
REMARK  214  A    between atoms: _510  and  _511
REMARK  215  A    between atoms: _510  and  _513
REMARK  216  A    between atoms: _513  and  _514
REMARK  217  A    between atoms: _517  and  _519
REMARK  218  A    between atoms: _519  and  _520
REMARK  219  A    between atoms: _519  and  _522
REMARK  220  A    between atoms: _522  and  _523
REMARK  221  A    between atoms: _527  and  _528
REMARK  222  A    between atoms: _533  and  _535
REMARK  223  A    between atoms: _535  and  _536
REMARK  224  A    between atoms: _535  and  _538
REMARK  225  A    between atoms: _541  and  _543
REMARK  226  A    between atoms: _543  and  _544
REMARK  227  A    between atoms: _543  and  _546
REMARK  228  A    between atoms: _546  and  _547
REMARK  229  A    between atoms: _552  and  _554
REMARK  230  A    between atoms: _554  and  _555
REMARK  231  A    between atoms: _554  and  _557
REMARK  232  A    between atoms: _557  and  _558
REMARK  233  A    between atoms: _561  and  _563
REMARK  234  A    between atoms: _563  and  _564
REMARK  235  A    between atoms: _563  and  _566
REMARK  236  A    between atoms: _566  and  _567
REMARK  237  A    between atoms: _570  and  _572
REMARK  238  A    between atoms: _572  and  _573
REMARK  239  A    between atoms: _575  and  _577
REMARK  240  A    between atoms: _577  and  _578
REMARK  241  A    between atoms: _577  and  _580
REMARK  242  A    between atoms: _580  and  _581
REMARK  243  A    between atoms: _581  and  _582
REMARK  244  A    between atoms: _582  and  _583
REMARK  245  A    between atoms: _592  and  _594
REMARK  246  A    between atoms: _594  and  _595
REMARK  247  A    between atoms: _594  and  _597
REMARK  248  A    between atoms: _597  and  _598
REMARK                            x       y       z     vdW  Elec       q    Type
REMARK                         _______ _______ _______ _____ _____    ______ ____
ROOT
ATOM      1  O   HOH     1      22.259  12.672  -1.590  0.00  0.00    +0.000 OA
ENDROOT
TORSDOF 0
REMARK  Name = ../refined-set-2016/1d4i/1d4i_pocket.pdb
REMARK  248 active torsions:
REMARK  status: ('A' for Active; 'I' for Inactive)
REMARK    1  A    between atoms: _1  and  _3
REMARK    2  A    between atoms: _3  and  _4
REMARK    3  A    between atoms: _3  and  _6
REMARK    4  A    between atoms: _6  and  _7
REMARK    5  A    between atoms: _7  and  _8
REMARK    6  A    between atoms: _8  and  _9
REMARK    7  A    between atoms: _18  and  _20
REMARK    8  A    between atoms: _20  and  _21
REMARK    9  A    between atoms: _20  and  _23
REMARK   10  A    between atoms: _23  and  _24
REMARK   11  A    between atoms: _27  and  _29
REMARK   12  A    between atoms: _29  and  _30
REMARK   13  A    between atoms: _29  and  _32
REMARK   14  A    between atoms: _32  and  _33
REMARK   15  A    between atoms: _36  and  _38
REMARK   16  A    between atoms: _38  and  _39
REMARK   17  A    between atoms: _38  and  _41
REMARK   18  A    between atoms: _41  and  _42
REMARK   19  A    between atoms: _45  and  _47
REMARK   20  A    between atoms: _47  and  _48
REMARK   21  A    between atoms: _47  and  _50
REMARK   22  A    between atoms: _50  and  _51
REMARK   23  A    between atoms: _54  and  _56
REMARK   24  A    between atoms: _56  and  _57
REMARK   25  A    between atoms: _56  and  _59
REMARK   26  A    between atoms: _59  and  _60
REMARK   27  A    between atoms: _63  and  _65
REMARK   28  A    between atoms: _65  and  _66
REMARK   29  A    between atoms: _68  and  _70
REMARK   30  A    between atoms: _70  and  _71
REMARK   31  A    between atoms: _74  and  _76
REMARK   32  A    between atoms: _76  and  _77
REMARK   33  A    between atoms: _76  and  _79
REMARK   34  A    between atoms: _79  and  _80
REMARK   35  A    between atoms: _83  and  _85
REMARK   36  A    between atoms: _85  and  _86
REMARK   37  A    between atoms: _85  and  _88
REMARK   38  A    between atoms: _88  and  _89
REMARK   39  A    between atoms: _92  and  _94
REMARK   40  A    between atoms: _94  and  _95
REMARK   41  A    between atoms: _94  and  _97
REMARK   42  A    between atoms: _97  and  _98
REMARK   43  A    between atoms: _101  and  _103
REMARK   44  A    between atoms: _103  and  _104
REMARK   45  A    between atoms: _103  and  _106
REMARK   46  A    between atoms: _109  and  _111
REMARK   47  A    between atoms: _111  and  _112
REMARK   48  A    between atoms: _111  and  _114
REMARK   49  A    between atoms: _114  and  _115
REMARK   50  A    between atoms: _118  and  _120
REMARK   51  A    between atoms: _120  and  _121
REMARK   52  A    between atoms: _120  and  _123
REMARK   53  A    between atoms: _123  and  _124
REMARK   54  A    between atoms: _124  and  _125
REMARK   55  A    between atoms: _125  and  _126
REMARK   56  A    between atoms: _126  and  _127
REMARK   57  A    between atoms: _131  and  _133
REMARK   58  A    between atoms: _133  and  _134
REMARK   59  A    between atoms: _133  and  _136
REMARK   60  A    between atoms: _136  and  _137
REMARK   61  A    between atoms: _137  and  _138
REMARK   62  A    between atoms: _140  and  _142
REMARK   63  A    between atoms: _142  and  _143
REMARK   64  A    between atoms: _142  and  _145
REMARK   65  A    between atoms: _145  and  _146
REMARK   66  A    between atoms: _149  and  _151
REMARK   67  A    between atoms: _151  and  _152
REMARK   68  A    between atoms: _154  and  _156
REMARK   69  A    between atoms: _156  and  _157
REMARK   70  A    between atoms: _159  and  _161
REMARK   71  A    between atoms: _161  and  _162
REMARK   72  A    between atoms: _161  and  _164
REMARK   73  A    between atoms: _164  and  _165
REMARK   74  A    between atoms: _168  and  _170
REMARK   75  A    between atoms: _170  and  _171
REMARK   76  A    between atoms: _173  and  _175
REMARK   77  A    between atoms: _175  and  _176
REMARK   78  A    between atoms: _178  and  _180
REMARK   79  A    between atoms: _180  and  _181
REMARK   80  A    between atoms: _180  and  _183
REMARK   81  A    between atoms: _183  and  _184
REMARK   82  A    between atoms: _190  and  _192
REMARK   83  A    between atoms: _192  and  _193
REMARK   84  A    between atoms: _192  and  _195
REMARK   85  A    between atoms: _195  and  _196
REMARK   86  A    between atoms: _199  and  _201
REMARK   87  A    between atoms: _201  and  _202
REMARK   88  A    between atoms: _201  and  _204
REMARK   89  A    between atoms: _207  and  _209
REMARK   90  A    between atoms: _209  and  _210
REMARK   91  A    between atoms: _209  and  _212
REMARK   92  A    between atoms: _212  and  _213
REMARK   93  A    between atoms: _216  and  _218
REMARK   94  A    between atoms: _218  and  _219
REMARK   95  A    between atoms: _218  and  _221
REMARK   96  A    between atoms: _221  and  _222
REMARK   97  A    between atoms: _226  and  _227
REMARK   98  A    between atoms: _232  and  _234
REMARK   99  A    between atoms: _234  and  _235
REMARK  100  A    between atoms: _234  and  _237
REMARK  101  A    between atoms: _240  and  _242
REMARK  102  A    between atoms: _242  and  _243
REMARK  103  A    between atoms: _242  and  _245
REMARK  104  A    between atoms: _245  and  _246
REMARK  105  A    between atoms: _251  and  _253
REMARK  106  A    between atoms: _253  and  _254
REMARK  107  A    between atoms: _253  and  _256
REMARK  108  A    between atoms: _256  and  _257
REMARK  109  A    between atoms: _260  and  _262
REMARK  110  A    between atoms: _262  and  _263
REMARK  111  A    between atoms: _262  and  _265
REMARK  112  A    between atoms: _265  and  _266
REMARK  113  A    between atoms: _269  and  _271
REMARK  114  A    between atoms: _271  and  _272
REMARK  115  A    between atoms: _274  and  _276
REMARK  116  A    between atoms: _276  and  _277
REMARK  117  A    between atoms: _276  and  _279
REMARK  118  A    between atoms: _279  and  _280
REMARK  119  A    between atoms: _280  and  _281
REMARK  120  A    between atoms: _281  and  _282
REMARK  121  A    between atoms: _291  and  _293
REMARK  122  A    between atoms: _293  and  _294
REMARK  123  A    between atoms: _293  and  _296
REMARK  124  A    between atoms: _296  and  _297
REMARK  125  A    between atoms: _302  and  _304
REMARK  126  A    between atoms: _304  and  _305
REMARK  127  A    between atoms: _304  and  _307
REMARK  128  A    between atoms: _307  and  _308
REMARK  129  A    between atoms: _308  and  _309
REMARK  130  A    between atoms: _309  and  _310
REMARK  131  A    between atoms: _319  and  _321
REMARK  132  A    between atoms: _321  and  _322
REMARK  133  A    between atoms: _321  and  _324
REMARK  134  A    between atoms: _324  and  _325
REMARK  135  A    between atoms: _328  and  _330
REMARK  136  A    between atoms: _330  and  _331
REMARK  137  A    between atoms: _330  and  _333
REMARK  138  A    between atoms: _333  and  _334
REMARK  139  A    between atoms: _337  and  _339
REMARK  140  A    between atoms: _339  and  _340
REMARK  141  A    between atoms: _339  and  _342
REMARK  142  A    between atoms: _342  and  _343
REMARK  143  A    between atoms: _346  and  _348
REMARK  144  A    between atoms: _348  and  _349
REMARK  145  A    between atoms: _348  and  _351
REMARK  146  A    between atoms: _351  and  _352
REMARK  147  A    between atoms: _355  and  _357
REMARK  148  A    between atoms: _357  and  _358
REMARK  149  A    between atoms: _357  and  _360
REMARK  150  A    between atoms: _360  and  _361
REMARK  151  A    between atoms: _364  and  _366
REMARK  152  A    between atoms: _366  and  _367
REMARK  153  A    between atoms: _369  and  _371
REMARK  154  A    between atoms: _371  and  _372
REMARK  155  A    between atoms: _375  and  _377
REMARK  156  A    between atoms: _377  and  _378
REMARK  157  A    between atoms: _377  and  _380
REMARK  158  A    between atoms: _380  and  _381
REMARK  159  A    between atoms: _384  and  _386
REMARK  160  A    between atoms: _386  and  _387
REMARK  161  A    between atoms: _386  and  _389
REMARK  162  A    between atoms: _389  and  _390
REMARK  163  A    between atoms: _393  and  _395
REMARK  164  A    between atoms: _395  and  _396
REMARK  165  A    between atoms: _395  and  _398
REMARK  166  A    between atoms: _398  and  _399
REMARK  167  A    between atoms: _402  and  _404
REMARK  168  A    between atoms: _404  and  _405
REMARK  169  A    between atoms: _404  and  _407
REMARK  170  A    between atoms: _410  and  _412
REMARK  171  A    between atoms: _412  and  _413
REMARK  172  A    between atoms: _412  and  _415
REMARK  173  A    between atoms: _415  and  _416
REMARK  174  A    between atoms: _419  and  _421
REMARK  175  A    between atoms: _421  and  _422
REMARK  176  A    between atoms: _421  and  _424
REMARK  177  A    between atoms: _424  and  _425
REMARK  178  A    between atoms: _425  and  _426
REMARK  179  A    between atoms: _426  and  _427
REMARK  180  A    between atoms: _427  and  _428
REMARK  181  A    between atoms: _432  and  _434
REMARK  182  A    between atoms: _434  and  _435
REMARK  183  A    between atoms: _434  and  _437
REMARK  184  A    between atoms: _437  and  _438
REMARK  185  A    between atoms: _438  and  _439
REMARK  186  A    between atoms: _441  and  _443
REMARK  187  A    between atoms: _443  and  _444
REMARK  188  A    between atoms: _443  and  _446
REMARK  189  A    between atoms: _446  and  _447
REMARK  190  A    between atoms: _450  and  _452
REMARK  191  A    between atoms: _452  and  _453
REMARK  192  A    between atoms: _455  and  _457
REMARK  193  A    between atoms: _457  and  _458
REMARK  194  A    between atoms: _460  and  _462
REMARK  195  A    between atoms: _462  and  _463
REMARK  196  A    between atoms: _462  and  _465
REMARK  197  A    between atoms: _465  and  _466
REMARK  198  A    between atoms: _469  and  _471
REMARK  199  A    between atoms: _471  and  _472
REMARK  200  A    between atoms: _474  and  _476
REMARK  201  A    between atoms: _476  and  _477
REMARK  202  A    between atoms: _479  and  _481
REMARK  203  A    between atoms: _481  and  _482
REMARK  204  A    between atoms: _481  and  _484
REMARK  205  A    between atoms: _484  and  _485
REMARK  206  A    between atoms: _491  and  _493
REMARK  207  A    between atoms: _493  and  _494
REMARK  208  A    between atoms: _493  and  _496
REMARK  209  A    between atoms: _496  and  _497
REMARK  210  A    between atoms: _500  and  _502
REMARK  211  A    between atoms: _502  and  _503
REMARK  212  A    between atoms: _502  and  _505
REMARK  213  A    between atoms: _508  and  _510
REMARK  214  A    between atoms: _510  and  _511
REMARK  215  A    between atoms: _510  and  _513
REMARK  216  A    between atoms: _513  and  _514
REMARK  217  A    between atoms: _517  and  _519
REMARK  218  A    between atoms: _519  and  _520
REMARK  219  A    between atoms: _519  and  _522
REMARK  220  A    between atoms: _522  and  _523
REMARK  221  A    between atoms: _527  and  _528
REMARK  222  A    between atoms: _533  and  _535
REMARK  223  A    between atoms: _535  and  _536
REMARK  224  A    between atoms: _535  and  _538
REMARK  225  A    between atoms: _541  and  _543
REMARK  226  A    between atoms: _543  and  _544
REMARK  227  A    between atoms: _543  and  _546
REMARK  228  A    between atoms: _546  and  _547
REMARK  229  A    between atoms: _552  and  _554
REMARK  230  A    between atoms: _554  and  _555
REMARK  231  A    between atoms: _554  and  _557
REMARK  232  A    between atoms: _557  and  _558
REMARK  233  A    between atoms: _561  and  _563
REMARK  234  A    between atoms: _563  and  _564
REMARK  235  A    between atoms: _563  and  _566
REMARK  236  A    between atoms: _566  and  _567
REMARK  237  A    between atoms: _570  and  _572
REMARK  238  A    between atoms: _572  and  _573
REMARK  239  A    between atoms: _575  and  _577
REMARK  240  A    between atoms: _577  and  _578
REMARK  241  A    between atoms: _577  and  _580
REMARK  242  A    between atoms: _580  and  _581
REMARK  243  A    between atoms: _581  and  _582
REMARK  244  A    between atoms: _582  and  _583
REMARK  245  A    between atoms: _592  and  _594
REMARK  246  A    between atoms: _594  and  _595
REMARK  247  A    between atoms: _594  and  _597
REMARK  248  A    between atoms: _597  and  _598
REMARK                            x       y       z     vdW  Elec       q    Type
REMARK                         _______ _______ _______ _____ _____    ______ ____
ROOT
ATOM      1  O   HOH     1       3.548  26.264   2.333  0.00  0.00    +0.000 OA
ENDROOT
TORSDOF 0
REMARK  Name = ../refined-set-2016/1d4i/1d4i_pocket.pdb
REMARK  248 active torsions:
REMARK  status: ('A' for Active; 'I' for Inactive)
REMARK    1  A    between atoms: _1  and  _3
REMARK    2  A    between atoms: _3  and  _4
REMARK    3  A    between atoms: _3  and  _6
REMARK    4  A    between atoms: _6  and  _7
REMARK    5  A    between atoms: _7  and  _8
REMARK    6  A    between atoms: _8  and  _9
REMARK    7  A    between atoms: _18  and  _20
REMARK    8  A    between atoms: _20  and  _21
REMARK    9  A    between atoms: _20  and  _23
REMARK   10  A    between atoms: _23  and  _24
REMARK   11  A    between atoms: _27  and  _29
REMARK   12  A    between atoms: _29  and  _30
REMARK   13  A    between atoms: _29  and  _32
REMARK   14  A    between atoms: _32  and  _33
REMARK   15  A    between atoms: _36  and  _38
REMARK   16  A    between atoms: _38  and  _39
REMARK   17  A    between atoms: _38  and  _41
REMARK   18  A    between atoms: _41  and  _42
REMARK   19  A    between atoms: _45  and  _47
REMARK   20  A    between atoms: _47  and  _48
REMARK   21  A    between atoms: _47  and  _50
REMARK   22  A    between atoms: _50  and  _51
REMARK   23  A    between atoms: _54  and  _56
REMARK   24  A    between atoms: _56  and  _57
REMARK   25  A    between atoms: _56  and  _59
REMARK   26  A    between atoms: _59  and  _60
REMARK   27  A    between atoms: _63  and  _65
REMARK   28  A    between atoms: _65  and  _66
REMARK   29  A    between atoms: _68  and  _70
REMARK   30  A    between atoms: _70  and  _71
REMARK   31  A    between atoms: _74  and  _76
REMARK   32  A    between atoms: _76  and  _77
REMARK   33  A    between atoms: _76  and  _79
REMARK   34  A    between atoms: _79  and  _80
REMARK   35  A    between atoms: _83  and  _85
REMARK   36  A    between atoms: _85  and  _86
REMARK   37  A    between atoms: _85  and  _88
REMARK   38  A    between atoms: _88  and  _89
REMARK   39  A    between atoms: _92  and  _94
REMARK   40  A    between atoms: _94  and  _95
REMARK   41  A    between atoms: _94  and  _97
REMARK   42  A    between atoms: _97  and  _98
REMARK   43  A    between atoms: _101  and  _103
REMARK   44  A    between atoms: _103  and  _104
REMARK   45  A    between atoms: _103  and  _106
REMARK   46  A    between atoms: _109  and  _111
REMARK   47  A    between atoms: _111  and  _112
REMARK   48  A    between atoms: _111  and  _114
REMARK   49  A    between atoms: _114  and  _115
REMARK   50  A    between atoms: _118  and  _120
REMARK   51  A    between atoms: _120  and  _121
REMARK   52  A    between atoms: _120  and  _123
REMARK   53  A    between atoms: _123  and  _124
REMARK   54  A    between atoms: _124  and  _125
REMARK   55  A    between atoms: _125  and  _126
REMARK   56  A    between atoms: _126  and  _127
REMARK   57  A    between atoms: _131  and  _133
REMARK   58  A    between atoms: _133  and  _134
REMARK   59  A    between atoms: _133  and  _136
REMARK   60  A    between atoms: _136  and  _137
REMARK   61  A    between atoms: _137  and  _138
REMARK   62  A    between atoms: _140  and  _142
REMARK   63  A    between atoms: _142  and  _143
REMARK   64  A    between atoms: _142  and  _145
REMARK   65  A    between atoms: _145  and  _146
REMARK   66  A    between atoms: _149  and  _151
REMARK   67  A    between atoms: _151  and  _152
REMARK   68  A    between atoms: _154  and  _156
REMARK   69  A    between atoms: _156  and  _157
REMARK   70  A    between atoms: _159  and  _161
REMARK   71  A    between atoms: _161  and  _162
REMARK   72  A    between atoms: _161  and  _164
REMARK   73  A    between atoms: _164  and  _165
REMARK   74  A    between atoms: _168  and  _170
REMARK   75  A    between atoms: _170  and  _171
REMARK   76  A    between atoms: _173  and  _175
REMARK   77  A    between atoms: _175  and  _176
REMARK   78  A    between atoms: _178  and  _180
REMARK   79  A    between atoms: _180  and  _181
REMARK   80  A    between atoms: _180  and  _183
REMARK   81  A    between atoms: _183  and  _184
REMARK   82  A    between atoms: _190  and  _192
REMARK   83  A    between atoms: _192  and  _193
REMARK   84  A    between atoms: _192  and  _195
REMARK   85  A    between atoms: _195  and  _196
REMARK   86  A    between atoms: _199  and  _201
REMARK   87  A    between atoms: _201  and  _202
REMARK   88  A    between atoms: _201  and  _204
REMARK   89  A    between atoms: _207  and  _209
REMARK   90  A    between atoms: _209  and  _210
REMARK   91  A    between atoms: _209  and  _212
REMARK   92  A    between atoms: _212  and  _213
REMARK   93  A    between atoms: _216  and  _218
REMARK   94  A    between atoms: _218  and  _219
REMARK   95  A    between atoms: _218  and  _221
REMARK   96  A    between atoms: _221  and  _222
REMARK   97  A    between atoms: _226  and  _227
REMARK   98  A    between atoms: _232  and  _234
REMARK   99  A    between atoms: _234  and  _235
REMARK  100  A    between atoms: _234  and  _237
REMARK  101  A    between atoms: _240  and  _242
REMARK  102  A    between atoms: _242  and  _243
REMARK  103  A    between atoms: _242  and  _245
REMARK  104  A    between atoms: _245  and  _246
REMARK  105  A    between atoms: _251  and  _253
REMARK  106  A    between atoms: _253  and  _254
REMARK  107  A    between atoms: _253  and  _256
REMARK  108  A    between atoms: _256  and  _257
REMARK  109  A    between atoms: _260  and  _262
REMARK  110  A    between atoms: _262  and  _263
REMARK  111  A    between atoms: _262  and  _265
REMARK  112  A    between atoms: _265  and  _266
REMARK  113  A    between atoms: _269  and  _271
REMARK  114  A    between atoms: _271  and  _272
REMARK  115  A    between atoms: _274  and  _276
REMARK  116  A    between atoms: _276  and  _277
REMARK  117  A    between atoms: _276  and  _279
REMARK  118  A    between atoms: _279  and  _280
REMARK  119  A    between atoms: _280  and  _281
REMARK  120  A    between atoms: _281  and  _282
REMARK  121  A    between atoms: _291  and  _293
REMARK  122  A    between atoms: _293  and  _294
REMARK  123  A    between atoms: _293  and  _296
REMARK  124  A    between atoms: _296  and  _297
REMARK  125  A    between atoms: _302  and  _304
REMARK  126  A    between atoms: _304  and  _305
REMARK  127  A    between atoms: _304  and  _307
REMARK  128  A    between atoms: _307  and  _308
REMARK  129  A    between atoms: _308  and  _309
REMARK  130  A    between atoms: _309  and  _310
REMARK  131  A    between atoms: _319  and  _321
REMARK  132  A    between atoms: _321  and  _322
REMARK  133  A    between atoms: _321  and  _324
REMARK  134  A    between atoms: _324  and  _325
REMARK  135  A    between atoms: _328  and  _330
REMARK  136  A    between atoms: _330  and  _331
REMARK  137  A    between atoms: _330  and  _333
REMARK  138  A    between atoms: _333  and  _334
REMARK  139  A    between atoms: _337  and  _339
REMARK  140  A    between atoms: _339  and  _340
REMARK  141  A    between atoms: _339  and  _342
REMARK  142  A    between atoms: _342  and  _343
REMARK  143  A    between atoms: _346  and  _348
REMARK  144  A    between atoms: _348  and  _349
REMARK  145  A    between atoms: _348  and  _351
REMARK  146  A    between atoms: _351  and  _352
REMARK  147  A    between atoms: _355  and  _357
REMARK  148  A    between atoms: _357  and  _358
REMARK  149  A    between atoms: _357  and  _360
REMARK  150  A    between atoms: _360  and  _361
REMARK  151  A    between atoms: _364  and  _366
REMARK  152  A    between atoms: _366  and  _367
REMARK  153  A    between atoms: _369  and  _371
REMARK  154  A    between atoms: _371  and  _372
REMARK  155  A    between atoms: _375  and  _377
REMARK  156  A    between atoms: _377  and  _378
REMARK  157  A    between atoms: _377  and  _380
REMARK  158  A    between atoms: _380  and  _381
REMARK  159  A    between atoms: _384  and  _386
REMARK  160  A    between atoms: _386  and  _387
REMARK  161  A    between atoms: _386  and  _389
REMARK  162  A    between atoms: _389  and  _390
REMARK  163  A    between atoms: _393  and  _395
REMARK  164  A    between atoms: _395  and  _396
REMARK  165  A    between atoms: _395  and  _398
REMARK  166  A    between atoms: _398  and  _399
REMARK  167  A    between atoms: _402  and  _404
REMARK  168  A    between atoms: _404  and  _405
REMARK  169  A    between atoms: _404  and  _407
REMARK  170  A    between atoms: _410  and  _412
REMARK  171  A    between atoms: _412  and  _413
REMARK  172  A    between atoms: _412  and  _415
REMARK  173  A    between atoms: _415  and  _416
REMARK  174  A    between atoms: _419  and  _421
REMARK  175  A    between atoms: _421  and  _422
REMARK  176  A    between atoms: _421  and  _424
REMARK  177  A    between atoms: _424  and  _425
REMARK  178  A    between atoms: _425  and  _426
REMARK  179  A    between atoms: _426  and  _427
REMARK  180  A    between atoms: _427  and  _428
REMARK  181  A    between atoms: _432  and  _434
REMARK  182  A    between atoms: _434  and  _435
REMARK  183  A    between atoms: _434  and  _437
REMARK  184  A    between atoms: _437  and  _438
REMARK  185  A    between atoms: _438  and  _439
REMARK  186  A    between atoms: _441  and  _443
REMARK  187  A    between atoms: _443  and  _444
REMARK  188  A    between atoms: _443  and  _446
REMARK  189  A    between atoms: _446  and  _447
REMARK  190  A    between atoms: _450  and  _452
REMARK  191  A    between atoms: _452  and  _453
REMARK  192  A    between atoms: _455  and  _457
REMARK  193  A    between atoms: _457  and  _458
REMARK  194  A    between atoms: _460  and  _462
REMARK  195  A    between atoms: _462  and  _463
REMARK  196  A    between atoms: _462  and  _465
REMARK  197  A    between atoms: _465  and  _466
REMARK  198  A    between atoms: _469  and  _471
REMARK  199  A    between atoms: _471  and  _472
REMARK  200  A    between atoms: _474  and  _476
REMARK  201  A    between atoms: _476  and  _477
REMARK  202  A    between atoms: _479  and  _481
REMARK  203  A    between atoms: _481  and  _482
REMARK  204  A    between atoms: _481  and  _484
REMARK  205  A    between atoms: _484  and  _485
REMARK  206  A    between atoms: _491  and  _493
REMARK  207  A    between atoms: _493  and  _494
REMARK  208  A    between atoms: _493  and  _496
REMARK  209  A    between atoms: _496  and  _497
REMARK  210  A    between atoms: _500  and  _502
REMARK  211  A    between atoms: _502  and  _503
REMARK  212  A    between atoms: _502  and  _505
REMARK  213  A    between atoms: _508  and  _510
REMARK  214  A    between atoms: _510  and  _511
REMARK  215  A    between atoms: _510  and  _513
REMARK  216  A    between atoms: _513  and  _514
REMARK  217  A    between atoms: _517  and  _519
REMARK  218  A    between atoms: _519  and  _520
REMARK  219  A    between atoms: _519  and  _522
REMARK  220  A    between atoms: _522  and  _523
REMARK  221  A    between atoms: _527  and  _528
REMARK  222  A    between atoms: _533  and  _535
REMARK  223  A    between atoms: _535  and  _536
REMARK  224  A    between atoms: _535  and  _538
REMARK  225  A    between atoms: _541  and  _543
REMARK  226  A    between atoms: _543  and  _544
REMARK  227  A    between atoms: _543  and  _546
REMARK  228  A    between atoms: _546  and  _547
REMARK  229  A    between atoms: _552  and  _554
REMARK  230  A    between atoms: _554  and  _555
REMARK  231  A    between atoms: _554  and  _557
REMARK  232  A    between atoms: _557  and  _558
REMARK  233  A    between atoms: _561  and  _563
REMARK  234  A    between atoms: _563  and  _564
REMARK  235  A    between atoms: _563  and  _566
REMARK  236  A    between atoms: _566  and  _567
REMARK  237  A    between atoms: _570  and  _572
REMARK  238  A    between atoms: _572  and  _573
REMARK  239  A    between atoms: _575  and  _577
REMARK  240  A    between atoms: _577  and  _578
REMARK  241  A    between atoms: _577  and  _580
REMARK  242  A    between atoms: _580  and  _581
REMARK  243  A    between atoms: _581  and  _582
REMARK  244  A    between atoms: _582  and  _583
REMARK  245  A    between atoms: _592  and  _594
REMARK  246  A    between atoms: _594  and  _595
REMARK  247  A    between atoms: _594  and  _597
REMARK  248  A    between atoms: _597  and  _598
REMARK                            x       y       z     vdW  Elec       q    Type
REMARK                         _______ _______ _______ _____ _____    ______ ____
ROOT
ATOM      1  O   HOH     1      25.466  17.843   2.887  0.00  0.00    +0.000 OA
ENDROOT
TORSDOF 0
REMARK  Name = ../refined-set-2016/1d4i/1d4i_pocket.pdb
REMARK  248 active torsions:
REMARK  status: ('A' for Active; 'I' for Inactive)
REMARK    1  A    between atoms: _1  and  _3
REMARK    2  A    between atoms: _3  and  _4
REMARK    3  A    between atoms: _3  and  _6
REMARK    4  A    between atoms: _6  and  _7
REMARK    5  A    between atoms: _7  and  _8
REMARK    6  A    between atoms: _8  and  _9
REMARK    7  A    between atoms: _18  and  _20
REMARK    8  A    between atoms: _20  and  _21
REMARK    9  A    between atoms: _20  and  _23
REMARK   10  A    between atoms: _23  and  _24
REMARK   11  A    between atoms: _27  and  _29
REMARK   12  A    between atoms: _29  and  _30
REMARK   13  A    between atoms: _29  and  _32
REMARK   14  A    between atoms: _32  and  _33
REMARK   15  A    between atoms: _36  and  _38
REMARK   16  A    between atoms: _38  and  _39
REMARK   17  A    between atoms: _38  and  _41
REMARK   18  A    between atoms: _41  and  _42
REMARK   19  A    between atoms: _45  and  _47
REMARK   20  A    between atoms: _47  and  _48
REMARK   21  A    between atoms: _47  and  _50
REMARK   22  A    between atoms: _50  and  _51
REMARK   23  A    between atoms: _54  and  _56
REMARK   24  A    between atoms: _56  and  _57
REMARK   25  A    between atoms: _56  and  _59
REMARK   26  A    between atoms: _59  and  _60
REMARK   27  A    between atoms: _63  and  _65
REMARK   28  A    between atoms: _65  and  _66
REMARK   29  A    between atoms: _68  and  _70
REMARK   30  A    between atoms: _70  and  _71
REMARK   31  A    between atoms: _74  and  _76
REMARK   32  A    between atoms: _76  and  _77
REMARK   33  A    between atoms: _76  and  _79
REMARK   34  A    between atoms: _79  and  _80
REMARK   35  A    between atoms: _83  and  _85
REMARK   36  A    between atoms: _85  and  _86
REMARK   37  A    between atoms: _85  and  _88
REMARK   38  A    between atoms: _88  and  _89
REMARK   39  A    between atoms: _92  and  _94
REMARK   40  A    between atoms: _94  and  _95
REMARK   41  A    between atoms: _94  and  _97
REMARK   42  A    between atoms: _97  and  _98
REMARK   43  A    between atoms: _101  and  _103
REMARK   44  A    between atoms: _103  and  _104
REMARK   45  A    between atoms: _103  and  _106
REMARK   46  A    between atoms: _109  and  _111
REMARK   47  A    between atoms: _111  and  _112
REMARK   48  A    between atoms: _111  and  _114
REMARK   49  A    between atoms: _114  and  _115
REMARK   50  A    between atoms: _118  and  _120
REMARK   51  A    between atoms: _120  and  _121
REMARK   52  A    between atoms: _120  and  _123
REMARK   53  A    between atoms: _123  and  _124
REMARK   54  A    between atoms: _124  and  _125
REMARK   55  A    between atoms: _125  and  _126
REMARK   56  A    between atoms: _126  and  _127
REMARK   57  A    between atoms: _131  and  _133
REMARK   58  A    between atoms: _133  and  _134
REMARK   59  A    between atoms: _133  and  _136
REMARK   60  A    between atoms: _136  and  _137
REMARK   61  A    between atoms: _137  and  _138
REMARK   62  A    between atoms: _140  and  _142
REMARK   63  A    between atoms: _142  and  _143
REMARK   64  A    between atoms: _142  and  _145
REMARK   65  A    between atoms: _145  and  _146
REMARK   66  A    between atoms: _149  and  _151
REMARK   67  A    between atoms: _151  and  _152
REMARK   68  A    between atoms: _154  and  _156
REMARK   69  A    between atoms: _156  and  _157
REMARK   70  A    between atoms: _159  and  _161
REMARK   71  A    between atoms: _161  and  _162
REMARK   72  A    between atoms: _161  and  _164
REMARK   73  A    between atoms: _164  and  _165
REMARK   74  A    between atoms: _168  and  _170
REMARK   75  A    between atoms: _170  and  _171
REMARK   76  A    between atoms: _173  and  _175
REMARK   77  A    between atoms: _175  and  _176
REMARK   78  A    between atoms: _178  and  _180
REMARK   79  A    between atoms: _180  and  _181
REMARK   80  A    between atoms: _180  and  _183
REMARK   81  A    between atoms: _183  and  _184
REMARK   82  A    between atoms: _190  and  _192
REMARK   83  A    between atoms: _192  and  _193
REMARK   84  A    between atoms: _192  and  _195
REMARK   85  A    between atoms: _195  and  _196
REMARK   86  A    between atoms: _199  and  _201
REMARK   87  A    between atoms: _201  and  _202
REMARK   88  A    between atoms: _201  and  _204
REMARK   89  A    between atoms: _207  and  _209
REMARK   90  A    between atoms: _209  and  _210
REMARK   91  A    between atoms: _209  and  _212
REMARK   92  A    between atoms: _212  and  _213
REMARK   93  A    between atoms: _216  and  _218
REMARK   94  A    between atoms: _218  and  _219
REMARK   95  A    between atoms: _218  and  _221
REMARK   96  A    between atoms: _221  and  _222
REMARK   97  A    between atoms: _226  and  _227
REMARK   98  A    between atoms: _232  and  _234
REMARK   99  A    between atoms: _234  and  _235
REMARK  100  A    between atoms: _234  and  _237
REMARK  101  A    between atoms: _240  and  _242
REMARK  102  A    between atoms: _242  and  _243
REMARK  103  A    between atoms: _242  and  _245
REMARK  104  A    between atoms: _245  and  _246
REMARK  105  A    between atoms: _251  and  _253
REMARK  106  A    between atoms: _253  and  _254
REMARK  107  A    between atoms: _253  and  _256
REMARK  108  A    between atoms: _256  and  _257
REMARK  109  A    between atoms: _260  and  _262
REMARK  110  A    between atoms: _262  and  _263
REMARK  111  A    between atoms: _262  and  _265
REMARK  112  A    between atoms: _265  and  _266
REMARK  113  A    between atoms: _269  and  _271
REMARK  114  A    between atoms: _271  and  _272
REMARK  115  A    between atoms: _274  and  _276
REMARK  116  A    between atoms: _276  and  _277
REMARK  117  A    between atoms: _276  and  _279
REMARK  118  A    between atoms: _279  and  _280
REMARK  119  A    between atoms: _280  and  _281
REMARK  120  A    between atoms: _281  and  _282
REMARK  121  A    between atoms: _291  and  _293
REMARK  122  A    between atoms: _293  and  _294
REMARK  123  A    between atoms: _293  and  _296
REMARK  124  A    between atoms: _296  and  _297
REMARK  125  A    between atoms: _302  and  _304
REMARK  126  A    between atoms: _304  and  _305
REMARK  127  A    between atoms: _304  and  _307
REMARK  128  A    between atoms: _307  and  _308
REMARK  129  A    between atoms: _308  and  _309
REMARK  130  A    between atoms: _309  and  _310
REMARK  131  A    between atoms: _319  and  _321
REMARK  132  A    between atoms: _321  and  _322
REMARK  133  A    between atoms: _321  and  _324
REMARK  134  A    between atoms: _324  and  _325
REMARK  135  A    between atoms: _328  and  _330
REMARK  136  A    between atoms: _330  and  _331
REMARK  137  A    between atoms: _330  and  _333
REMARK  138  A    between atoms: _333  and  _334
REMARK  139  A    between atoms: _337  and  _339
REMARK  140  A    between atoms: _339  and  _340
REMARK  141  A    between atoms: _339  and  _342
REMARK  142  A    between atoms: _342  and  _343
REMARK  143  A    between atoms: _346  and  _348
REMARK  144  A    between atoms: _348  and  _349
REMARK  145  A    between atoms: _348  and  _351
REMARK  146  A    between atoms: _351  and  _352
REMARK  147  A    between atoms: _355  and  _357
REMARK  148  A    between atoms: _357  and  _358
REMARK  149  A    between atoms: _357  and  _360
REMARK  150  A    between atoms: _360  and  _361
REMARK  151  A    between atoms: _364  and  _366
REMARK  152  A    between atoms: _366  and  _367
REMARK  153  A    between atoms: _369  and  _371
REMARK  154  A    between atoms: _371  and  _372
REMARK  155  A    between atoms: _375  and  _377
REMARK  156  A    between atoms: _377  and  _378
REMARK  157  A    between atoms: _377  and  _380
REMARK  158  A    between atoms: _380  and  _381
REMARK  159  A    between atoms: _384  and  _386
REMARK  160  A    between atoms: _386  and  _387
REMARK  161  A    between atoms: _386  and  _389
REMARK  162  A    between atoms: _389  and  _390
REMARK  163  A    between atoms: _393  and  _395
REMARK  164  A    between atoms: _395  and  _396
REMARK  165  A    between atoms: _395  and  _398
REMARK  166  A    between atoms: _398  and  _399
REMARK  167  A    between atoms: _402  and  _404
REMARK  168  A    between atoms: _404  and  _405
REMARK  169  A    between atoms: _404  and  _407
REMARK  170  A    between atoms: _410  and  _412
REMARK  171  A    between atoms: _412  and  _413
REMARK  172  A    between atoms: _412  and  _415
REMARK  173  A    between atoms: _415  and  _416
REMARK  174  A    between atoms: _419  and  _421
REMARK  175  A    between atoms: _421  and  _422
REMARK  176  A    between atoms: _421  and  _424
REMARK  177  A    between atoms: _424  and  _425
REMARK  178  A    between atoms: _425  and  _426
REMARK  179  A    between atoms: _426  and  _427
REMARK  180  A    between atoms: _427  and  _428
REMARK  181  A    between atoms: _432  and  _434
REMARK  182  A    between atoms: _434  and  _435
REMARK  183  A    between atoms: _434  and  _437
REMARK  184  A    between atoms: _437  and  _438
REMARK  185  A    between atoms: _438  and  _439
REMARK  186  A    between atoms: _441  and  _443
REMARK  187  A    between atoms: _443  and  _444
REMARK  188  A    between atoms: _443  and  _446
REMARK  189  A    between atoms: _446  and  _447
REMARK  190  A    between atoms: _450  and  _452
REMARK  191  A    between atoms: _452  and  _453
REMARK  192  A    between atoms: _455  and  _457
REMARK  193  A    between atoms: _457  and  _458
REMARK  194  A    between atoms: _460  and  _462
REMARK  195  A    between atoms: _462  and  _463
REMARK  196  A    between atoms: _462  and  _465
REMARK  197  A    between atoms: _465  and  _466
REMARK  198  A    between atoms: _469  and  _471
REMARK  199  A    between atoms: _471  and  _472
REMARK  200  A    between atoms: _474  and  _476
REMARK  201  A    between atoms: _476  and  _477
REMARK  202  A    between atoms: _479  and  _481
REMARK  203  A    between atoms: _481  and  _482
REMARK  204  A    between atoms: _481  and  _484
REMARK  205  A    between atoms: _484  and  _485
REMARK  206  A    between atoms: _491  and  _493
REMARK  207  A    between atoms: _493  and  _494
REMARK  208  A    between atoms: _493  and  _496
REMARK  209  A    between atoms: _496  and  _497
REMARK  210  A    between atoms: _500  and  _502
REMARK  211  A    between atoms: _502  and  _503
REMARK  212  A    between atoms: _502  and  _505
REMARK  213  A    between atoms: _508  and  _510
REMARK  214  A    between atoms: _510  and  _511
REMARK  215  A    between atoms: _510  and  _513
REMARK  216  A    between atoms: _513  and  _514
REMARK  217  A    between atoms: _517  and  _519
REMARK  218  A    between atoms: _519  and  _520
REMARK  219  A    between atoms: _519  and  _522
REMARK  220  A    between atoms: _522  and  _523
REMARK  221  A    between atoms: _527  and  _528
REMARK  222  A    between atoms: _533  and  _535
REMARK  223  A    between atoms: _535  and  _536
REMARK  224  A    between atoms: _535  and  _538
REMARK  225  A    between atoms: _541  and  _543
REMARK  226  A    between atoms: _543  and  _544
REMARK  227  A    between atoms: _543  and  _546
REMARK  228  A    between atoms: _546  and  _547
REMARK  229  A    between atoms: _552  and  _554
REMARK  230  A    between atoms: _554  and  _555
REMARK  231  A    between atoms: _554  and  _557
REMARK  232  A    between atoms: _557  and  _558
REMARK  233  A    between atoms: _561  and  _563
REMARK  234  A    between atoms: _563  and  _564
REMARK  235  A    between atoms: _563  and  _566
REMARK  236  A    between atoms: _566  and  _567
REMARK  237  A    between atoms: _570  and  _572
REMARK  238  A    between atoms: _572  and  _573
REMARK  239  A    between atoms: _575  and  _577
REMARK  240  A    between atoms: _577  and  _578
REMARK  241  A    between atoms: _577  and  _580
REMARK  242  A    between atoms: _580  and  _581
REMARK  243  A    between atoms: _581  and  _582
REMARK  244  A    between atoms: _582  and  _583
REMARK  245  A    between atoms: _592  and  _594
REMARK  246  A    between atoms: _594  and  _595
REMARK  247  A    between atoms: _594  and  _597
REMARK  248  A    between atoms: _597  and  _598
REMARK                            x       y       z     vdW  Elec       q    Type
REMARK                         _______ _______ _______ _____ _____    ______ ____
ROOT
ATOM      1  O   HOH     1       3.044  22.932  -0.691  0.00  0.00    +0.000 OA
ENDROOT
TORSDOF 0
REMARK  Name = ../refined-set-2016/1d4i/1d4i_pocket.pdb
REMARK  248 active torsions:
REMARK  status: ('A' for Active; 'I' for Inactive)
REMARK    1  A    between atoms: _1  and  _3
REMARK    2  A    between atoms: _3  and  _4
REMARK    3  A    between atoms: _3  and  _6
REMARK    4  A    between atoms: _6  and  _7
REMARK    5  A    between atoms: _7  and  _8
REMARK    6  A    between atoms: _8  and  _9
REMARK    7  A    between atoms: _18  and  _20
REMARK    8  A    between atoms: _20  and  _21
REMARK    9  A    between atoms: _20  and  _23
REMARK   10  A    between atoms: _23  and  _24
REMARK   11  A    between atoms: _27  and  _29
REMARK   12  A    between atoms: _29  and  _30
REMARK   13  A    between atoms: _29  and  _32
REMARK   14  A    between atoms: _32  and  _33
REMARK   15  A    between atoms: _36  and  _38
REMARK   16  A    between atoms: _38  and  _39
REMARK   17  A    between atoms: _38  and  _41
REMARK   18  A    between atoms: _41  and  _42
REMARK   19  A    between atoms: _45  and  _47
REMARK   20  A    between atoms: _47  and  _48
REMARK   21  A    between atoms: _47  and  _50
REMARK   22  A    between atoms: _50  and  _51
REMARK   23  A    between atoms: _54  and  _56
REMARK   24  A    between atoms: _56  and  _57
REMARK   25  A    between atoms: _56  and  _59
REMARK   26  A    between atoms: _59  and  _60
REMARK   27  A    between atoms: _63  and  _65
REMARK   28  A    between atoms: _65  and  _66
REMARK   29  A    between atoms: _68  and  _70
REMARK   30  A    between atoms: _70  and  _71
REMARK   31  A    between atoms: _74  and  _76
REMARK   32  A    between atoms: _76  and  _77
REMARK   33  A    between atoms: _76  and  _79
REMARK   34  A    between atoms: _79  and  _80
REMARK   35  A    between atoms: _83  and  _85
REMARK   36  A    between atoms: _85  and  _86
REMARK   37  A    between atoms: _85  and  _88
REMARK   38  A    between atoms: _88  and  _89
REMARK   39  A    between atoms: _92  and  _94
REMARK   40  A    between atoms: _94  and  _95
REMARK   41  A    between atoms: _94  and  _97
REMARK   42  A    between atoms: _97  and  _98
REMARK   43  A    between atoms: _101  and  _103
REMARK   44  A    between atoms: _103  and  _104
REMARK   45  A    between atoms: _103  and  _106
REMARK   46  A    between atoms: _109  and  _111
REMARK   47  A    between atoms: _111  and  _112
REMARK   48  A    between atoms: _111  and  _114
REMARK   49  A    between atoms: _114  and  _115
REMARK   50  A    between atoms: _118  and  _120
REMARK   51  A    between atoms: _120  and  _121
REMARK   52  A    between atoms: _120  and  _123
REMARK   53  A    between atoms: _123  and  _124
REMARK   54  A    between atoms: _124  and  _125
REMARK   55  A    between atoms: _125  and  _126
REMARK   56  A    between atoms: _126  and  _127
REMARK   57  A    between atoms: _131  and  _133
REMARK   58  A    between atoms: _133  and  _134
REMARK   59  A    between atoms: _133  and  _136
REMARK   60  A    between atoms: _136  and  _137
REMARK   61  A    between atoms: _137  and  _138
REMARK   62  A    between atoms: _140  and  _142
REMARK   63  A    between atoms: _142  and  _143
REMARK   64  A    between atoms: _142  and  _145
REMARK   65  A    between atoms: _145  and  _146
REMARK   66  A    between atoms: _149  and  _151
REMARK   67  A    between atoms: _151  and  _152
REMARK   68  A    between atoms: _154  and  _156
REMARK   69  A    between atoms: _156  and  _157
REMARK   70  A    between atoms: _159  and  _161
REMARK   71  A    between atoms: _161  and  _162
REMARK   72  A    between atoms: _161  and  _164
REMARK   73  A    between atoms: _164  and  _165
REMARK   74  A    between atoms: _168  and  _170
REMARK   75  A    between atoms: _170  and  _171
REMARK   76  A    between atoms: _173  and  _175
REMARK   77  A    between atoms: _175  and  _176
REMARK   78  A    between atoms: _178  and  _180
REMARK   79  A    between atoms: _180  and  _181
REMARK   80  A    between atoms: _180  and  _183
REMARK   81  A    between atoms: _183  and  _184
REMARK   82  A    between atoms: _190  and  _192
REMARK   83  A    between atoms: _192  and  _193
REMARK   84  A    between atoms: _192  and  _195
REMARK   85  A    between atoms: _195  and  _196
REMARK   86  A    between atoms: _199  and  _201
REMARK   87  A    between atoms: _201  and  _202
REMARK   88  A    between atoms: _201  and  _204
REMARK   89  A    between atoms: _207  and  _209
REMARK   90  A    between atoms: _209  and  _210
REMARK   91  A    between atoms: _209  and  _212
REMARK   92  A    between atoms: _212  and  _213
REMARK   93  A    between atoms: _216  and  _218
REMARK   94  A    between atoms: _218  and  _219
REMARK   95  A    between atoms: _218  and  _221
REMARK   96  A    between atoms: _221  and  _222
REMARK   97  A    between atoms: _226  and  _227
REMARK   98  A    between atoms: _232  and  _234
REMARK   99  A    between atoms: _234  and  _235
REMARK  100  A    between atoms: _234  and  _237
REMARK  101  A    between atoms: _240  and  _242
REMARK  102  A    between atoms: _242  and  _243
REMARK  103  A    between atoms: _242  and  _245
REMARK  104  A    between atoms: _245  and  _246
REMARK  105  A    between atoms: _251  and  _253
REMARK  106  A    between atoms: _253  and  _254
REMARK  107  A    between atoms: _253  and  _256
REMARK  108  A    between atoms: _256  and  _257
REMARK  109  A    between atoms: _260  and  _262
REMARK  110  A    between atoms: _262  and  _263
REMARK  111  A    between atoms: _262  and  _265
REMARK  112  A    between atoms: _265  and  _266
REMARK  113  A    between atoms: _269  and  _271
REMARK  114  A    between atoms: _271  and  _272
REMARK  115  A    between atoms: _274  and  _276
REMARK  116  A    between atoms: _276  and  _277
REMARK  117  A    between atoms: _276  and  _279
REMARK  118  A    between atoms: _279  and  _280
REMARK  119  A    between atoms: _280  and  _281
REMARK  120  A    between atoms: _281  and  _282
REMARK  121  A    between atoms: _291  and  _293
REMARK  122  A    between atoms: _293  and  _294
REMARK  123  A    between atoms: _293  and  _296
REMARK  124  A    between atoms: _296  and  _297
REMARK  125  A    between atoms: _302  and  _304
REMARK  126  A    between atoms: _304  and  _305
REMARK  127  A    between atoms: _304  and  _307
REMARK  128  A    between atoms: _307  and  _308
REMARK  129  A    between atoms: _308  and  _309
REMARK  130  A    between atoms: _309  and  _310
REMARK  131  A    between atoms: _319  and  _321
REMARK  132  A    between atoms: _321  and  _322
REMARK  133  A    between atoms: _321  and  _324
REMARK  134  A    between atoms: _324  and  _325
REMARK  135  A    between atoms: _328  and  _330
REMARK  136  A    between atoms: _330  and  _331
REMARK  137  A    between atoms: _330  and  _333
REMARK  138  A    between atoms: _333  and  _334
REMARK  139  A    between atoms: _337  and  _339
REMARK  140  A    between atoms: _339  and  _340
REMARK  141  A    between atoms: _339  and  _342
REMARK  142  A    between atoms: _342  and  _343
REMARK  143  A    between atoms: _346  and  _348
REMARK  144  A    between atoms: _348  and  _349
REMARK  145  A    between atoms: _348  and  _351
REMARK  146  A    between atoms: _351  and  _352
REMARK  147  A    between atoms: _355  and  _357
REMARK  148  A    between atoms: _357  and  _358
REMARK  149  A    between atoms: _357  and  _360
REMARK  150  A    between atoms: _360  and  _361
REMARK  151  A    between atoms: _364  and  _366
REMARK  152  A    between atoms: _366  and  _367
REMARK  153  A    between atoms: _369  and  _371
REMARK  154  A    between atoms: _371  and  _372
REMARK  155  A    between atoms: _375  and  _377
REMARK  156  A    between atoms: _377  and  _378
REMARK  157  A    between atoms: _377  and  _380
REMARK  158  A    between atoms: _380  and  _381
REMARK  159  A    between atoms: _384  and  _386
REMARK  160  A    between atoms: _386  and  _387
REMARK  161  A    between atoms: _386  and  _389
REMARK  162  A    between atoms: _389  and  _390
REMARK  163  A    between atoms: _393  and  _395
REMARK  164  A    between atoms: _395  and  _396
REMARK  165  A    between atoms: _395  and  _398
REMARK  166  A    between atoms: _398  and  _399
REMARK  167  A    between atoms: _402  and  _404
REMARK  168  A    between atoms: _404  and  _405
REMARK  169  A    between atoms: _404  and  _407
REMARK  170  A    between atoms: _410  and  _412
REMARK  171  A    between atoms: _412  and  _413
REMARK  172  A    between atoms: _412  and  _415
REMARK  173  A    between atoms: _415  and  _416
REMARK  174  A    between atoms: _419  and  _421
REMARK  175  A    between atoms: _421  and  _422
REMARK  176  A    between atoms: _421  and  _424
REMARK  177  A    between atoms: _424  and  _425
REMARK  178  A    between atoms: _425  and  _426
REMARK  179  A    between atoms: _426  and  _427
REMARK  180  A    between atoms: _427  and  _428
REMARK  181  A    between atoms: _432  and  _434
REMARK  182  A    between atoms: _434  and  _435
REMARK  183  A    between atoms: _434  and  _437
REMARK  184  A    between atoms: _437  and  _438
REMARK  185  A    between atoms: _438  and  _439
REMARK  186  A    between atoms: _441  and  _443
REMARK  187  A    between atoms: _443  and  _444
REMARK  188  A    between atoms: _443  and  _446
REMARK  189  A    between atoms: _446  and  _447
REMARK  190  A    between atoms: _450  and  _452
REMARK  191  A    between atoms: _452  and  _453
REMARK  192  A    between atoms: _455  and  _457
REMARK  193  A    between atoms: _457  and  _458
REMARK  194  A    between atoms: _460  and  _462
REMARK  195  A    between atoms: _462  and  _463
REMARK  196  A    between atoms: _462  and  _465
REMARK  197  A    between atoms: _465  and  _466
REMARK  198  A    between atoms: _469  and  _471
REMARK  199  A    between atoms: _471  and  _472
REMARK  200  A    between atoms: _474  and  _476
REMARK  201  A    between atoms: _476  and  _477
REMARK  202  A    between atoms: _479  and  _481
REMARK  203  A    between atoms: _481  and  _482
REMARK  204  A    between atoms: _481  and  _484
REMARK  205  A    between atoms: _484  and  _485
REMARK  206  A    between atoms: _491  and  _493
REMARK  207  A    between atoms: _493  and  _494
REMARK  208  A    between atoms: _493  and  _496
REMARK  209  A    between atoms: _496  and  _497
REMARK  210  A    between atoms: _500  and  _502
REMARK  211  A    between atoms: _502  and  _503
REMARK  212  A    between atoms: _502  and  _505
REMARK  213  A    between atoms: _508  and  _510
REMARK  214  A    between atoms: _510  and  _511
REMARK  215  A    between atoms: _510  and  _513
REMARK  216  A    between atoms: _513  and  _514
REMARK  217  A    between atoms: _517  and  _519
REMARK  218  A    between atoms: _519  and  _520
REMARK  219  A    between atoms: _519  and  _522
REMARK  220  A    between atoms: _522  and  _523
REMARK  221  A    between atoms: _527  and  _528
REMARK  222  A    between atoms: _533  and  _535
REMARK  223  A    between atoms: _535  and  _536
REMARK  224  A    between atoms: _535  and  _538
REMARK  225  A    between atoms: _541  and  _543
REMARK  226  A    between atoms: _543  and  _544
REMARK  227  A    between atoms: _543  and  _546
REMARK  228  A    between atoms: _546  and  _547
REMARK  229  A    between atoms: _552  and  _554
REMARK  230  A    between atoms: _554  and  _555
REMARK  231  A    between atoms: _554  and  _557
REMARK  232  A    between atoms: _557  and  _558
REMARK  233  A    between atoms: _561  and  _563
REMARK  234  A    between atoms: _563  and  _564
REMARK  235  A    between atoms: _563  and  _566
REMARK  236  A    between atoms: _566  and  _567
REMARK  237  A    between atoms: _570  and  _572
REMARK  238  A    between atoms: _572  and  _573
REMARK  239  A    between atoms: _575  and  _577
REMARK  240  A    between atoms: _577  and  _578
REMARK  241  A    between atoms: _577  and  _580
REMARK  242  A    between atoms: _580  and  _581
REMARK  243  A    between atoms: _581  and  _582
REMARK  244  A    between atoms: _582  and  _583
REMARK  245  A    between atoms: _592  and  _594
REMARK  246  A    between atoms: _594  and  _595
REMARK  247  A    between atoms: _594  and  _597
REMARK  248  A    between atoms: _597  and  _598
REMARK                            x       y       z     vdW  Elec       q    Type
REMARK                         _______ _______ _______ _____ _____    ______ ____
ROOT
ATOM      1  O   HOH     1      16.790  15.942  11.467  0.00  0.00    +0.000 OA
ENDROOT
TORSDOF 0
REMARK  Name = ../refined-set-2016/1d4i/1d4i_pocket.pdb
REMARK  248 active torsions:
REMARK  status: ('A' for Active; 'I' for Inactive)
REMARK    1  A    between atoms: _1  and  _3
REMARK    2  A    between atoms: _3  and  _4
REMARK    3  A    between atoms: _3  and  _6
REMARK    4  A    between atoms: _6  and  _7
REMARK    5  A    between atoms: _7  and  _8
REMARK    6  A    between atoms: _8  and  _9
REMARK    7  A    between atoms: _18  and  _20
REMARK    8  A    between atoms: _20  and  _21
REMARK    9  A    between atoms: _20  and  _23
REMARK   10  A    between atoms: _23  and  _24
REMARK   11  A    between atoms: _27  and  _29
REMARK   12  A    between atoms: _29  and  _30
REMARK   13  A    between atoms: _29  and  _32
REMARK   14  A    between atoms: _32  and  _33
REMARK   15  A    between atoms: _36  and  _38
REMARK   16  A    between atoms: _38  and  _39
REMARK   17  A    between atoms: _38  and  _41
REMARK   18  A    between atoms: _41  and  _42
REMARK   19  A    between atoms: _45  and  _47
REMARK   20  A    between atoms: _47  and  _48
REMARK   21  A    between atoms: _47  and  _50
REMARK   22  A    between atoms: _50  and  _51
REMARK   23  A    between atoms: _54  and  _56
REMARK   24  A    between atoms: _56  and  _57
REMARK   25  A    between atoms: _56  and  _59
REMARK   26  A    between atoms: _59  and  _60
REMARK   27  A    between atoms: _63  and  _65
REMARK   28  A    between atoms: _65  and  _66
REMARK   29  A    between atoms: _68  and  _70
REMARK   30  A    between atoms: _70  and  _71
REMARK   31  A    between atoms: _74  and  _76
REMARK   32  A    between atoms: _76  and  _77
REMARK   33  A    between atoms: _76  and  _79
REMARK   34  A    between atoms: _79  and  _80
REMARK   35  A    between atoms: _83  and  _85
REMARK   36  A    between atoms: _85  and  _86
REMARK   37  A    between atoms: _85  and  _88
REMARK   38  A    between atoms: _88  and  _89
REMARK   39  A    between atoms: _92  and  _94
REMARK   40  A    between atoms: _94  and  _95
REMARK   41  A    between atoms: _94  and  _97
REMARK   42  A    between atoms: _97  and  _98
REMARK   43  A    between atoms: _101  and  _103
REMARK   44  A    between atoms: _103  and  _104
REMARK   45  A    between atoms: _103  and  _106
REMARK   46  A    between atoms: _109  and  _111
REMARK   47  A    between atoms: _111  and  _112
REMARK   48  A    between atoms: _111  and  _114
REMARK   49  A    between atoms: _114  and  _115
REMARK   50  A    between atoms: _118  and  _120
REMARK   51  A    between atoms: _120  and  _121
REMARK   52  A    between atoms: _120  and  _123
REMARK   53  A    between atoms: _123  and  _124
REMARK   54  A    between atoms: _124  and  _125
REMARK   55  A    between atoms: _125  and  _126
REMARK   56  A    between atoms: _126  and  _127
REMARK   57  A    between atoms: _131  and  _133
REMARK   58  A    between atoms: _133  and  _134
REMARK   59  A    between atoms: _133  and  _136
REMARK   60  A    between atoms: _136  and  _137
REMARK   61  A    between atoms: _137  and  _138
REMARK   62  A    between atoms: _140  and  _142
REMARK   63  A    between atoms: _142  and  _143
REMARK   64  A    between atoms: _142  and  _145
REMARK   65  A    between atoms: _145  and  _146
REMARK   66  A    between atoms: _149  and  _151
REMARK   67  A    between atoms: _151  and  _152
REMARK   68  A    between atoms: _154  and  _156
REMARK   69  A    between atoms: _156  and  _157
REMARK   70  A    between atoms: _159  and  _161
REMARK   71  A    between atoms: _161  and  _162
REMARK   72  A    between atoms: _161  and  _164
REMARK   73  A    between atoms: _164  and  _165
REMARK   74  A    between atoms: _168  and  _170
REMARK   75  A    between atoms: _170  and  _171
REMARK   76  A    between atoms: _173  and  _175
REMARK   77  A    between atoms: _175  and  _176
REMARK   78  A    between atoms: _178  and  _180
REMARK   79  A    between atoms: _180  and  _181
REMARK   80  A    between atoms: _180  and  _183
REMARK   81  A    between atoms: _183  and  _184
REMARK   82  A    between atoms: _190  and  _192
REMARK   83  A    between atoms: _192  and  _193
REMARK   84  A    between atoms: _192  and  _195
REMARK   85  A    between atoms: _195  and  _196
REMARK   86  A    between atoms: _199  and  _201
REMARK   87  A    between atoms: _201  and  _202
REMARK   88  A    between atoms: _201  and  _204
REMARK   89  A    between atoms: _207  and  _209
REMARK   90  A    between atoms: _209  and  _210
REMARK   91  A    between atoms: _209  and  _212
REMARK   92  A    between atoms: _212  and  _213
REMARK   93  A    between atoms: _216  and  _218
REMARK   94  A    between atoms: _218  and  _219
REMARK   95  A    between atoms: _218  and  _221
REMARK   96  A    between atoms: _221  and  _222
REMARK   97  A    between atoms: _226  and  _227
REMARK   98  A    between atoms: _232  and  _234
REMARK   99  A    between atoms: _234  and  _235
REMARK  100  A    between atoms: _234  and  _237
REMARK  101  A    between atoms: _240  and  _242
REMARK  102  A    between atoms: _242  and  _243
REMARK  103  A    between atoms: _242  and  _245
REMARK  104  A    between atoms: _245  and  _246
REMARK  105  A    between atoms: _251  and  _253
REMARK  106  A    between atoms: _253  and  _254
REMARK  107  A    between atoms: _253  and  _256
REMARK  108  A    between atoms: _256  and  _257
REMARK  109  A    between atoms: _260  and  _262
REMARK  110  A    between atoms: _262  and  _263
REMARK  111  A    between atoms: _262  and  _265
REMARK  112  A    between atoms: _265  and  _266
REMARK  113  A    between atoms: _269  and  _271
REMARK  114  A    between atoms: _271  and  _272
REMARK  115  A    between atoms: _274  and  _276
REMARK  116  A    between atoms: _276  and  _277
REMARK  117  A    between atoms: _276  and  _279
REMARK  118  A    between atoms: _279  and  _280
REMARK  119  A    between atoms: _280  and  _281
REMARK  120  A    between atoms: _281  and  _282
REMARK  121  A    between atoms: _291  and  _293
REMARK  122  A    between atoms: _293  and  _294
REMARK  123  A    between atoms: _293  and  _296
REMARK  124  A    between atoms: _296  and  _297
REMARK  125  A    between atoms: _302  and  _304
REMARK  126  A    between atoms: _304  and  _305
REMARK  127  A    between atoms: _304  and  _307
REMARK  128  A    between atoms: _307  and  _308
REMARK  129  A    between atoms: _308  and  _309
REMARK  130  A    between atoms: _309  and  _310
REMARK  131  A    between atoms: _319  and  _321
REMARK  132  A    between atoms: _321  and  _322
REMARK  133  A    between atoms: _321  and  _324
REMARK  134  A    between atoms: _324  and  _325
REMARK  135  A    between atoms: _328  and  _330
REMARK  136  A    between atoms: _330  and  _331
REMARK  137  A    between atoms: _330  and  _333
REMARK  138  A    between atoms: _333  and  _334
REMARK  139  A    between atoms: _337  and  _339
REMARK  140  A    between atoms: _339  and  _340
REMARK  141  A    between atoms: _339  and  _342
REMARK  142  A    between atoms: _342  and  _343
REMARK  143  A    between atoms: _346  and  _348
REMARK  144  A    between atoms: _348  and  _349
REMARK  145  A    between atoms: _348  and  _351
REMARK  146  A    between atoms: _351  and  _352
REMARK  147  A    between atoms: _355  and  _357
REMARK  148  A    between atoms: _357  and  _358
REMARK  149  A    between atoms: _357  and  _360
REMARK  150  A    between atoms: _360  and  _361
REMARK  151  A    between atoms: _364  and  _366
REMARK  152  A    between atoms: _366  and  _367
REMARK  153  A    between atoms: _369  and  _371
REMARK  154  A    between atoms: _371  and  _372
REMARK  155  A    between atoms: _375  and  _377
REMARK  156  A    between atoms: _377  and  _378
REMARK  157  A    between atoms: _377  and  _380
REMARK  158  A    between atoms: _380  and  _381
REMARK  159  A    between atoms: _384  and  _386
REMARK  160  A    between atoms: _386  and  _387
REMARK  161  A    between atoms: _386  and  _389
REMARK  162  A    between atoms: _389  and  _390
REMARK  163  A    between atoms: _393  and  _395
REMARK  164  A    between atoms: _395  and  _396
REMARK  165  A    between atoms: _395  and  _398
REMARK  166  A    between atoms: _398  and  _399
REMARK  167  A    between atoms: _402  and  _404
REMARK  168  A    between atoms: _404  and  _405
REMARK  169  A    between atoms: _404  and  _407
REMARK  170  A    between atoms: _410  and  _412
REMARK  171  A    between atoms: _412  and  _413
REMARK  172  A    between atoms: _412  and  _415
REMARK  173  A    between atoms: _415  and  _416
REMARK  174  A    between atoms: _419  and  _421
REMARK  175  A    between atoms: _421  and  _422
REMARK  176  A    between atoms: _421  and  _424
REMARK  177  A    between atoms: _424  and  _425
REMARK  178  A    between atoms: _425  and  _426
REMARK  179  A    between atoms: _426  and  _427
REMARK  180  A    between atoms: _427  and  _428
REMARK  181  A    between atoms: _432  and  _434
REMARK  182  A    between atoms: _434  and  _435
REMARK  183  A    between atoms: _434  and  _437
REMARK  184  A    between atoms: _437  and  _438
REMARK  185  A    between atoms: _438  and  _439
REMARK  186  A    between atoms: _441  and  _443
REMARK  187  A    between atoms: _443  and  _444
REMARK  188  A    between atoms: _443  and  _446
REMARK  189  A    between atoms: _446  and  _447
REMARK  190  A    between atoms: _450  and  _452
REMARK  191  A    between atoms: _452  and  _453
REMARK  192  A    between atoms: _455  and  _457
REMARK  193  A    between atoms: _457  and  _458
REMARK  194  A    between atoms: _460  and  _462
REMARK  195  A    between atoms: _462  and  _463
REMARK  196  A    between atoms: _462  and  _465
REMARK  197  A    between atoms: _465  and  _466
REMARK  198  A    between atoms: _469  and  _471
REMARK  199  A    between atoms: _471  and  _472
REMARK  200  A    between atoms: _474  and  _476
REMARK  201  A    between atoms: _476  and  _477
REMARK  202  A    between atoms: _479  and  _481
REMARK  203  A    between atoms: _481  and  _482
REMARK  204  A    between atoms: _481  and  _484
REMARK  205  A    between atoms: _484  and  _485
REMARK  206  A    between atoms: _491  and  _493
REMARK  207  A    between atoms: _493  and  _494
REMARK  208  A    between atoms: _493  and  _496
REMARK  209  A    between atoms: _496  and  _497
REMARK  210  A    between atoms: _500  and  _502
REMARK  211  A    between atoms: _502  and  _503
REMARK  212  A    between atoms: _502  and  _505
REMARK  213  A    between atoms: _508  and  _510
REMARK  214  A    between atoms: _510  and  _511
REMARK  215  A    between atoms: _510  and  _513
REMARK  216  A    between atoms: _513  and  _514
REMARK  217  A    between atoms: _517  and  _519
REMARK  218  A    between atoms: _519  and  _520
REMARK  219  A    between atoms: _519  and  _522
REMARK  220  A    between atoms: _522  and  _523
REMARK  221  A    between atoms: _527  and  _528
REMARK  222  A    between atoms: _533  and  _535
REMARK  223  A    between atoms: _535  and  _536
REMARK  224  A    between atoms: _535  and  _538
REMARK  225  A    between atoms: _541  and  _543
REMARK  226  A    between atoms: _543  and  _544
REMARK  227  A    between atoms: _543  and  _546
REMARK  228  A    between atoms: _546  and  _547
REMARK  229  A    between atoms: _552  and  _554
REMARK  230  A    between atoms: _554  and  _555
REMARK  231  A    between atoms: _554  and  _557
REMARK  232  A    between atoms: _557  and  _558
REMARK  233  A    between atoms: _561  and  _563
REMARK  234  A    between atoms: _563  and  _564
REMARK  235  A    between atoms: _563  and  _566
REMARK  236  A    between atoms: _566  and  _567
REMARK  237  A    between atoms: _570  and  _572
REMARK  238  A    between atoms: _572  and  _573
REMARK  239  A    between atoms: _575  and  _577
REMARK  240  A    between atoms: _577  and  _578
REMARK  241  A    between atoms: _577  and  _580
REMARK  242  A    between atoms: _580  and  _581
REMARK  243  A    between atoms: _581  and  _582
REMARK  244  A    between atoms: _582  and  _583
REMARK  245  A    between atoms: _592  and  _594
REMARK  246  A    between atoms: _594  and  _595
REMARK  247  A    between atoms: _594  and  _597
REMARK  248  A    between atoms: _597  and  _598
REMARK                            x       y       z     vdW  Elec       q    Type
REMARK                         _______ _______ _______ _____ _____    ______ ____
ROOT
ATOM      1  O   HOH     1      18.161  16.325   8.494  0.00  0.00    +0.000 OA
ENDROOT
TORSDOF 0
