REMARK  Name = ../refined-set-2016/2wtv/2wtv_pocket.pdb
REMARK  217 active torsions:
REMARK  status: ('A' for Active; 'I' for Inactive)
REMARK    1  A    between atoms: _1  and  _3
REMARK    2  A    between atoms: _3  and  _4
REMARK    3  A    between atoms: _3  and  _6
REMARK    4  A    between atoms: _6  and  _7
REMARK    5  A    between atoms: _7  and  _8
REMARK    6  A    between atoms: _8  and  _9
REMARK    7  A    between atoms: _19  and  _20
REMARK    8  A    between atoms: _25  and  _27
REMARK    9  A    between atoms: _27  and  _28
REMARK   10  A    between atoms: _27  and  _30
REMARK   11  A    between atoms: _30  and  _31
REMARK   12  A    between atoms: _34  and  _36
REMARK   13  A    between atoms: _36  and  _37
REMARK   14  A    between atoms: _39  and  _41
REMARK   15  A    between atoms: _41  and  _42
REMARK   16  A    between atoms: _41  and  _44
REMARK   17  A    between atoms: _44  and  _45
REMARK   18  A    between atoms: _45  and  _46
REMARK   19  A    between atoms: _46  and  _47
REMARK   20  A    between atoms: _47  and  _48
REMARK   21  A    between atoms: _52  and  _54
REMARK   22  A    between atoms: _54  and  _55
REMARK   23  A    between atoms: _57  and  _59
REMARK   24  A    between atoms: _59  and  _60
REMARK   25  A    between atoms: _59  and  _62
REMARK   26  A    between atoms: _62  and  _63
REMARK   27  A    between atoms: _63  and  _64
REMARK   28  A    between atoms: _64  and  _65
REMARK   29  A    between atoms: _65  and  _66
REMARK   30  A    between atoms: _70  and  _72
REMARK   31  A    between atoms: _72  and  _73
REMARK   32  A    between atoms: _72  and  _75
REMARK   33  A    between atoms: _75  and  _76
REMARK   34  A    between atoms: _82  and  _84
REMARK   35  A    between atoms: _84  and  _85
REMARK   36  A    between atoms: _87  and  _89
REMARK   37  A    between atoms: _89  and  _90
REMARK   38  A    between atoms: _89  and  _92
REMARK   39  A    between atoms: _92  and  _93
REMARK   40  A    between atoms: _98  and  _100
REMARK   41  A    between atoms: _100  and  _101
REMARK   42  A    between atoms: _100  and  _103
REMARK   43  A    between atoms: _106  and  _108
REMARK   44  A    between atoms: _108  and  _109
REMARK   45  A    between atoms: _108  and  _111
REMARK   46  A    between atoms: _111  and  _112
REMARK   47  A    between atoms: _117  and  _118
REMARK   48  A    between atoms: _120  and  _122
REMARK   49  A    between atoms: _122  and  _123
REMARK   50  A    between atoms: _122  and  _125
REMARK   51  A    between atoms: _125  and  _126
REMARK   52  A    between atoms: _129  and  _131
REMARK   53  A    between atoms: _131  and  _132
REMARK   54  A    between atoms: _131  and  _134
REMARK   55  A    between atoms: _134  and  _135
REMARK   56  A    between atoms: _138  and  _140
REMARK   57  A    between atoms: _140  and  _141
REMARK   58  A    between atoms: _140  and  _143
REMARK   59  A    between atoms: _143  and  _144
REMARK   60  A    between atoms: _147  and  _149
REMARK   61  A    between atoms: _149  and  _150
REMARK   62  A    between atoms: _153  and  _155
REMARK   63  A    between atoms: _155  and  _156
REMARK   64  A    between atoms: _155  and  _158
REMARK   65  A    between atoms: _158  and  _159
REMARK   66  A    between atoms: _162  and  _164
REMARK   67  A    between atoms: _164  and  _165
REMARK   68  A    between atoms: _164  and  _167
REMARK   69  A    between atoms: _167  and  _168
REMARK   70  A    between atoms: _168  and  _169
REMARK   71  A    between atoms: _169  and  _170
REMARK   72  A    between atoms: _170  and  _171
REMARK   73  A    between atoms: _175  and  _177
REMARK   74  A    between atoms: _177  and  _178
REMARK   75  A    between atoms: _177  and  _180
REMARK   76  A    between atoms: _183  and  _185
REMARK   77  A    between atoms: _185  and  _186
REMARK   78  A    between atoms: _185  and  _188
REMARK   79  A    between atoms: _188  and  _189
REMARK   80  A    between atoms: _192  and  _194
REMARK   81  A    between atoms: _194  and  _195
REMARK   82  A    between atoms: _194  and  _197
REMARK   83  A    between atoms: _197  and  _198
REMARK   84  A    between atoms: _201  and  _203
REMARK   85  A    between atoms: _203  and  _204
REMARK   86  A    between atoms: _203  and  _206
REMARK   87  A    between atoms: _206  and  _207
REMARK   88  A    between atoms: _207  and  _208
REMARK   89  A    between atoms: _208  and  _209
REMARK   90  A    between atoms: _218  and  _220
REMARK   91  A    between atoms: _220  and  _221
REMARK   92  A    between atoms: _220  and  _223
REMARK   93  A    between atoms: _223  and  _224
REMARK   94  A    between atoms: _227  and  _229
REMARK   95  A    between atoms: _229  and  _230
REMARK   96  A    between atoms: _229  and  _232
REMARK   97  A    between atoms: _232  and  _233
REMARK   98  A    between atoms: _236  and  _238
REMARK   99  A    between atoms: _238  and  _239
REMARK  100  A    between atoms: _238  and  _241
REMARK  101  A    between atoms: _241  and  _242
REMARK  102  A    between atoms: _245  and  _247
REMARK  103  A    between atoms: _247  and  _248
REMARK  104  A    between atoms: _247  and  _250
REMARK  105  A    between atoms: _250  and  _251
REMARK  106  A    between atoms: _251  and  _252
REMARK  107  A    between atoms: _255  and  _257
REMARK  108  A    between atoms: _257  and  _258
REMARK  109  A    between atoms: _257  and  _260
REMARK  110  A    between atoms: _260  and  _261
REMARK  111  A    between atoms: _266  and  _267
REMARK  112  A    between atoms: _269  and  _271
REMARK  113  A    between atoms: _271  and  _272
REMARK  114  A    between atoms: _276  and  _277
REMARK  115  A    between atoms: _282  and  _284
REMARK  116  A    between atoms: _284  and  _285
REMARK  117  A    between atoms: _284  and  _287
REMARK  118  A    between atoms: _287  and  _288
REMARK  119  A    between atoms: _288  and  _289
REMARK  120  A    between atoms: _289  and  _290
REMARK  121  A    between atoms: _299  and  _301
REMARK  122  A    between atoms: _301  and  _302
REMARK  123  A    between atoms: _304  and  _306
REMARK  124  A    between atoms: _306  and  _307
REMARK  125  A    between atoms: _306  and  _309
REMARK  126  A    between atoms: _309  and  _310
REMARK  127  A    between atoms: _310  and  _311
REMARK  128  A    between atoms: _314  and  _316
REMARK  129  A    between atoms: _316  and  _317
REMARK  130  A    between atoms: _316  and  _319
REMARK  131  A    between atoms: _322  and  _324
REMARK  132  A    between atoms: _324  and  _325
REMARK  133  A    between atoms: _324  and  _327
REMARK  134  A    between atoms: _327  and  _328
REMARK  135  A    between atoms: _333  and  _334
REMARK  136  A    between atoms: _336  and  _338
REMARK  137  A    between atoms: _338  and  _339
REMARK  138  A    between atoms: _338  and  _341
REMARK  139  A    between atoms: _341  and  _342
REMARK  140  A    between atoms: _342  and  _343
REMARK  141  A    between atoms: _343  and  _344
REMARK  142  A    between atoms: _344  and  _345
REMARK  143  A    between atoms: _349  and  _351
REMARK  144  A    between atoms: _351  and  _352
REMARK  145  A    between atoms: _351  and  _354
REMARK  146  A    between atoms: _354  and  _355
REMARK  147  A    between atoms: _355  and  _356
REMARK  148  A    between atoms: _356  and  _357
REMARK  149  A    between atoms: _366  and  _368
REMARK  150  A    between atoms: _368  and  _369
REMARK  151  A    between atoms: _368  and  _371
REMARK  152  A    between atoms: _371  and  _372
REMARK  153  A    between atoms: _376  and  _377
REMARK  154  A    between atoms: _382  and  _384
REMARK  155  A    between atoms: _384  and  _385
REMARK  156  A    between atoms: _384  and  _387
REMARK  157  A    between atoms: _387  and  _388
REMARK  158  A    between atoms: _388  and  _389
REMARK  159  A    between atoms: _392  and  _394
REMARK  160  A    between atoms: _394  and  _395
REMARK  161  A    between atoms: _394  and  _397
REMARK  162  A    between atoms: _397  and  _398
REMARK  163  A    between atoms: _403  and  _405
REMARK  164  A    between atoms: _405  and  _406
REMARK  165  A    between atoms: _405  and  _408
REMARK  166  A    between atoms: _408  and  _409
REMARK  167  A    between atoms: _412  and  _414
REMARK  168  A    between atoms: _414  and  _415
REMARK  169  A    between atoms: _414  and  _417
REMARK  170  A    between atoms: _417  and  _418
REMARK  171  A    between atoms: _421  and  _423
REMARK  172  A    between atoms: _423  and  _424
REMARK  173  A    between atoms: _423  and  _426
REMARK  174  A    between atoms: _426  and  _427
REMARK  175  A    between atoms: _430  and  _432
REMARK  176  A    between atoms: _432  and  _433
REMARK  177  A    between atoms: _435  and  _437
REMARK  178  A    between atoms: _437  and  _438
REMARK  179  A    between atoms: _437  and  _440
REMARK  180  A    between atoms: _440  and  _441
REMARK  181  A    between atoms: _441  and  _442
REMARK  182  A    between atoms: _442  and  _443
REMARK  183  A    between atoms: _443  and  _444
REMARK  184  A    between atoms: _448  and  _450
REMARK  185  A    between atoms: _450  and  _451
REMARK  186  A    between atoms: _450  and  _453
REMARK  187  A    between atoms: _453  and  _454
REMARK  188  A    between atoms: _457  and  _459
REMARK  189  A    between atoms: _459  and  _460
REMARK  190  A    between atoms: _463  and  _465
REMARK  191  A    between atoms: _465  and  _466
REMARK  192  A    between atoms: _465  and  _468
REMARK  193  A    between atoms: _468  and  _469
REMARK  194  A    between atoms: _472  and  _474
REMARK  195  A    between atoms: _474  and  _475
REMARK  196  A    between atoms: _474  and  _477
REMARK  197  A    between atoms: _477  and  _478
REMARK  198  A    between atoms: _484  and  _486
REMARK  199  A    between atoms: _486  and  _487
REMARK  200  A    between atoms: _489  and  _491
REMARK  201  A    between atoms: _491  and  _492
REMARK  202  A    between atoms: _491  and  _494
REMARK  203  A    between atoms: _494  and  _495
REMARK  204  A    between atoms: _505  and  _507
REMARK  205  A    between atoms: _507  and  _508
REMARK  206  A    between atoms: _507  and  _510
REMARK  207  A    between atoms: _510  and  _511
REMARK  208  A    between atoms: _513  and  _515
REMARK  209  A    between atoms: _515  and  _516
REMARK  210  A    between atoms: _515  and  _518
REMARK  211  A    between atoms: _521  and  _523
REMARK  212  A    between atoms: _523  and  _524
REMARK  213  A    between atoms: _523  and  _526
REMARK  214  A    between atoms: _526  and  _527
REMARK  215  A    between atoms: _532  and  _534
REMARK  216  A    between atoms: _534  and  _535
REMARK  217  A    between atoms: _539  and  _540
REMARK                            x       y       z     vdW  Elec       q    Type
REMARK                         _______ _______ _______ _____ _____    ______ ____
ROOT
ATOM      1  CA  LYS A   7       7.028 -15.908 -13.104  0.00  0.00    +0.149 C 
ENDROOT
BRANCH   1   2
ATOM      2  C   LYS A   7       6.672 -15.439 -14.506  0.00  0.00    +0.241 C 
ATOM      3  N   PHE A   8       5.715 -14.523 -14.599  0.00  0.00    -0.297 N 
ATOM      4  H   PHE A   8       5.313 -14.117 -13.730  0.00  0.00    +0.150 HD
ATOM      5  O   LYS A   7       7.250 -15.900 -15.483  0.00  0.00    -0.273 OA
BRANCH   3   6
ATOM      6  CA  PHE A   8       5.217 -14.076 -15.888  0.00  0.00    +0.153 C 
BRANCH   6   7
ATOM      7  C   PHE A   8       5.207 -12.553 -15.999  0.00  0.00    +0.241 C 
ATOM      8  N   GLY A   9       5.876 -11.878 -15.073  0.00  0.00    -0.295 N 
ATOM      9  H   GLY A   9       6.375 -12.393 -14.320  0.00  0.00    +0.150 HD
ATOM     10  O   PHE A   8       4.596 -11.997 -16.910  0.00  0.00    -0.273 OA
BRANCH   8  11
ATOM     11  CA  GLY A   9       5.918 -10.431 -15.101  0.00  0.00    +0.176 C 
BRANCH  11  12
ATOM     12  C   GLY A   9       6.276  -9.853 -13.748  0.00  0.00    +0.243 C 
ATOM     13  O   GLY A   9       6.690 -10.571 -12.848  0.00  0.00    -0.273 OA
ATOM     14  N   ASN A  10       6.117  -8.545 -13.603  0.00  0.00    -0.297 N 
ATOM     15  H   ASN A  10       5.727  -7.988 -14.390  0.00  0.00    +0.150 HD
BRANCH  14  16
ATOM     16  CA  ASN A  10       6.477  -7.876 -12.365  0.00  0.00    +0.158 C 
BRANCH  16  17
ATOM     17  C   ASN A  10       5.265  -7.319 -11.659  0.00  0.00    +0.241 C 
ATOM     18  N   VAL A  11       5.434  -7.011 -10.380  0.00  0.00    -0.297 N 
ATOM     19  H   VAL A  11       6.331  -7.253  -9.913  0.00  0.00    +0.150 HD
ATOM     20  O   ASN A  10       4.201  -7.168 -12.254  0.00  0.00    -0.273 OA
BRANCH  18  21
ATOM     21  CA  VAL A  11       4.394  -6.344  -9.619  0.00  0.00    +0.149 C 
BRANCH  21  22
ATOM     22  C   VAL A  11       4.947  -4.987  -9.206  0.00  0.00    +0.241 C 
ATOM     23  O   VAL A  11       6.109  -4.874  -8.812  0.00  0.00    -0.273 OA
ATOM     24  N   TYR A  12       4.123  -3.954  -9.313  0.00  0.00    -0.297 N 
ATOM     25  H   TYR A  12       3.134  -4.112  -9.593  0.00  0.00    +0.150 HD
BRANCH  24  26
ATOM     26  CA  TYR A  12       4.587  -2.604  -9.043  0.00  0.00    +0.153 C 
BRANCH  26  27
ATOM     27  C   TYR A  12       3.690  -1.911  -8.044  0.00  0.00    +0.241 C 
ATOM     28  N   LEU A  13       4.300  -1.019  -7.277  0.00  0.00    -0.298 N 
ATOM     29  H   LEU A  13       5.340  -1.010  -7.255  0.00  0.00    +0.150 HD
ATOM     30  O   TYR A  12       2.487  -2.172  -7.976  0.00  0.00    -0.273 OA
BRANCH  28  31
ATOM     31  CA  LEU A  13       3.584  -0.060  -6.471  0.00  0.00    +0.137 C 
BRANCH  31  32
ATOM     32  C   LEU A  13       3.022   0.966  -7.437  0.00  0.00    +0.227 C 
ATOM     33  O   LEU A  13       3.758   1.516  -8.248  0.00  0.00    -0.286 OA
ENDBRANCH  31  32
BRANCH  31  34
ATOM     34  CB  LEU A  13       4.570   0.636  -5.547  0.00  0.00    +0.028 C 
BRANCH  34  35
ATOM     35  CG  LEU A  13       4.113   1.027  -4.148  0.00  0.00    +0.002 C 
ATOM     36  CD2 LEU A  13       4.890   2.249  -3.704  0.00  0.00    +0.000 C 
ATOM     37  CD1 LEU A  13       2.633   1.299  -4.124  0.00  0.00    +0.000 C 
ENDBRANCH  34  35
ENDBRANCH  31  34
ENDBRANCH  28  31
ENDBRANCH  26  27
BRANCH  26  38
ATOM     38  CB  TYR A  12       4.603  -1.762 -10.327  0.00  0.00    +0.055 C 
BRANCH  38  39
ATOM     39  CG  TYR A  12       5.419  -2.317 -11.475  0.00  0.00    -0.020 A 
ATOM     40  CD2 TYR A  12       6.729  -1.894 -11.698  0.00  0.00    -0.001 A 
ATOM     41  CE2 TYR A  12       7.472  -2.392 -12.771  0.00  0.00    +0.036 A 
ATOM     42  CZ  TYR A  12       6.896  -3.312 -13.632  0.00  0.00    +0.134 A 
ATOM     43  CE1 TYR A  12       5.597  -3.737 -13.432  0.00  0.00    +0.036 A 
ATOM     44  CD1 TYR A  12       4.865  -3.235 -12.365  0.00  0.00    -0.001 A 
BRANCH  42  45
ATOM     45  OH  TYR A  12       7.613  -3.818 -14.693  0.00  0.00    -0.506 OA
ATOM     46  HH  TYR A  12       7.048  -4.456 -15.197  0.00  0.00    +0.292 HD
ENDBRANCH  42  45
ENDBRANCH  38  39
ENDBRANCH  26  38
ENDBRANCH  24  26
ENDBRANCH  21  22
BRANCH  21  47
ATOM     47  CB  VAL A  11       3.993  -7.162  -8.380  0.00  0.00    +0.027 C 
ATOM     48  CG2 VAL A  11       2.794  -6.525  -7.679  0.00  0.00    +0.002 C 
ATOM     49  CG1 VAL A  11       3.694  -8.608  -8.773  0.00  0.00    +0.002 C 
ENDBRANCH  21  47
ENDBRANCH  18  21
ENDBRANCH  16  17
BRANCH  16  50
ATOM     50  CB  ASN A  10       7.467  -6.741 -12.638  0.00  0.00    +0.114 C 
BRANCH  50  51
ATOM     51  CG  ASN A  10       8.789  -7.234 -13.173  0.00  0.00    +0.222 C 
ATOM     52  OD1 ASN A  10       9.151  -8.391 -12.990  0.00  0.00    -0.275 OA
ATOM     53  ND2 ASN A  10       9.526  -6.346 -13.836  0.00  0.00    -0.329 N 
ATOM     54 HD21 ASN A  10       9.177  -5.375 -13.967  0.00  0.00    +0.145 HD
ATOM     55 HD22 ASN A  10      10.450  -6.623 -14.224  0.00  0.00    +0.145 HD
ENDBRANCH  50  51
ENDBRANCH  16  50
ENDBRANCH  14  16
ENDBRANCH  11  12
ENDBRANCH   8  11
ENDBRANCH   6   7
BRANCH   6  56
ATOM     56  CB  PHE A   8       3.806 -14.619 -16.119  0.00  0.00    +0.055 C 
BRANCH  56  57
ATOM     57  CG  PHE A   8       3.663 -16.068 -15.801  0.00  0.00    -0.020 A 
ATOM     58  CD2 PHE A   8       3.037 -16.475 -14.633  0.00  0.00    -0.004 A 
ATOM     59  CE2 PHE A   8       2.909 -17.817 -14.328  0.00  0.00    -0.000 A 
ATOM     60  CZ  PHE A   8       3.417 -18.768 -15.191  0.00  0.00    -0.000 A 
ATOM     61  CE1 PHE A   8       4.048 -18.376 -16.360  0.00  0.00    -0.000 A 
ATOM     62  CD1 PHE A   8       4.169 -17.031 -16.659  0.00  0.00    -0.004 A 
ENDBRANCH  56  57
ENDBRANCH   6  56
ENDBRANCH   3   6
ENDBRANCH   1   2
BRANCH   1  64
ATOM     63  C   GLY A   6       7.216 -13.900 -11.745  0.00  0.00    +0.243 C 
ATOM     64  N   LYS A   7       6.531 -14.977 -12.103  0.00  0.00    -0.297 N 
ATOM     65  H   LYS A   7       5.611 -15.162 -11.655  0.00  0.00    +0.150 HD
ATOM     66  O   GLY A   6       8.306 -13.611 -12.239  0.00  0.00    -0.273 OA
BRANCH  63  67
ATOM     67  CA  GLY A   6       6.582 -13.021 -10.680  0.00  0.00    +0.176 C 
BRANCH  67  70
ATOM     68  C   LYS A   5       8.397 -11.703  -9.760  0.00  0.00    +0.241 C 
ATOM     69  O   LYS A   5       8.683 -12.563  -8.936  0.00  0.00    -0.273 OA
ATOM     70  N   GLY A   6       7.341 -11.792 -10.558  0.00  0.00    -0.295 N 
ATOM     71  H   GLY A   6       7.051 -10.960 -11.110  0.00  0.00    +0.150 HD
BRANCH  68  72
ATOM     72  CA  LYS A   5       9.273 -10.473  -9.941  0.00  0.00    +0.149 C 
BRANCH  72  74
ATOM     73  C   GLY A   4       8.752  -8.624  -8.424  0.00  0.00    +0.243 C 
ATOM     74  N   LYS A   5       9.461  -9.716  -8.707  0.00  0.00    -0.297 N 
ATOM     75  H   LYS A   5      10.175 -10.041  -8.024  0.00  0.00    +0.150 HD
ATOM     76  O   GLY A   4       7.912  -8.151  -9.189  0.00  0.00    -0.273 OA
BRANCH  73  77
ATOM     77  CA  GLY A   4       9.025  -7.972  -7.079  0.00  0.00    +0.176 C 
BRANCH  77  80
ATOM     78  C   LEU A   3       8.393  -6.043  -5.736  0.00  0.00    +0.241 C 
ATOM     79  O   LEU A   3       8.895  -6.523  -4.721  0.00  0.00    -0.273 OA
ATOM     80  N   GLY A   4       8.370  -6.685  -6.904  0.00  0.00    -0.295 N 
ATOM     81  H   GLY A   4       7.872  -6.255  -7.710  0.00  0.00    +0.150 HD
BRANCH  78  82
ATOM     82  CA  LEU A   3       7.761  -4.655  -5.701  0.00  0.00    +0.149 C 
BRANCH  82  85
ATOM     83  C   PRO A   2       8.833  -3.201  -7.331  0.00  0.00    +0.241 C 
ATOM     84  O   PRO A   2       9.798  -2.980  -6.597  0.00  0.00    -0.273 OA
ATOM     85  N   LEU A   3       7.825  -4.002  -7.001  0.00  0.00    -0.297 N 
ATOM     86  H   LEU A   3       7.062  -4.167  -7.689  0.00  0.00    +0.150 HD
BRANCH  83  90
ATOM     87  C   ARG A   1       8.222  -0.258  -7.901  0.00  0.00    +0.241 C 
ATOM     88  O   ARG A   1       7.116  -0.600  -7.483  0.00  0.00    -0.273 OA
ATOM     89  N   PRO A   2       9.056  -1.097  -8.520  0.00  0.00    -0.272 N 
ATOM     90  CA  PRO A   2       8.762  -2.519  -8.689  0.00  0.00    +0.152 C 
ATOM     91  CB  PRO A   2       9.906  -3.008  -9.587  0.00  0.00    +0.031 C 
ATOM     92  CG  PRO A   2      10.529  -1.762 -10.146  0.00  0.00    +0.024 C 
ATOM     93  CD  PRO A   2      10.365  -0.743  -9.080  0.00  0.00    +0.094 C 
BRANCH  87  94
ATOM     94  CA  ARG A   1       8.716   1.166  -7.722  0.00  0.00    +0.145 C 
BRANCH  94  95
ATOM     95  N   ARG A   1       7.651   2.157  -7.843  0.00  0.00    -0.238 NA
ATOM     96  H   ARG A   1       7.349   2.693  -7.005  0.00  0.00    +0.142 HD
ENDBRANCH  94  95
BRANCH  94  97
ATOM     97  CB  ARG A   1       9.441   1.292  -6.380  0.00  0.00    +0.030 C 
BRANCH  97  98
ATOM     98  CG  ARG A   1       8.649   0.819  -5.179  0.00  0.00    +0.045 C 
BRANCH  98  99
ATOM     99  CD  ARG A   1       9.550   0.713  -3.947  0.00  0.00    +0.174 C 
BRANCH  99 100
ATOM    100  NE  ARG A   1       8.782   0.641  -2.704  0.00  0.00    -0.265 N 
ATOM    101  CZ  ARG A   1       8.216   1.701  -2.132  0.00  0.00    +0.342 C 
ATOM    102  NH2 ARG A   1       7.535   1.576  -1.001  0.00  0.00    -0.292 N 
ATOM    103 HH21 ARG A   1       7.439   0.643  -0.552  0.00  0.00    +0.255 HD
ATOM    104 HH22 ARG A   1       7.097   2.411  -0.563  0.00  0.00    +0.255 HD
ATOM    105  NH1 ARG A   1       8.332   2.898  -2.701  0.00  0.00    -0.292 N 
ATOM    106 HH11 ARG A   1       7.891   3.729  -2.258  0.00  0.00    +0.255 HD
ATOM    107 HH12 ARG A   1       8.863   3.002  -3.589  0.00  0.00    +0.255 HD
ATOM    108  HE  ARG A   1       8.673  -0.285  -2.244  0.00  0.00    +0.259 HD
ENDBRANCH  99 100
ENDBRANCH  98  99
ENDBRANCH  97  98
ENDBRANCH  94  97
ENDBRANCH  87  94
ENDBRANCH  83  90
ENDBRANCH  82  85
BRANCH  82 109
ATOM    109  CB  LEU A   3       6.312  -4.740  -5.221  0.00  0.00    +0.029 C 
BRANCH 109 110
ATOM    110  CG  LEU A   3       5.632  -3.412  -4.882  0.00  0.00    +0.002 C 
ATOM    111  CD2 LEU A   3       6.244  -2.782  -3.631  0.00  0.00    +0.000 C 
ATOM    112  CD1 LEU A   3       4.142  -3.615  -4.693  0.00  0.00    +0.000 C 
ENDBRANCH 109 110
ENDBRANCH  82 109
ENDBRANCH  78  82
ENDBRANCH  77  80
ENDBRANCH  73  77
ENDBRANCH  72  74
BRANCH  72 113
ATOM    113  CB  LYS A   5      10.616 -10.939 -10.510  0.00  0.00    +0.029 C 
BRANCH 113 114
ATOM    114  CG  LYS A   5      11.581  -9.840 -10.886  0.00  0.00    +0.000 C 
BRANCH 114 115
ATOM    115  CD  LYS A   5      12.352 -10.214 -12.150  0.00  0.00    -0.024 C 
BRANCH 115 116
ATOM    116  CE  LYS A   5      12.544 -11.728 -12.264  0.00  0.00    -0.086 C 
BRANCH 116 117
ATOM    117  NZ  LYS A   5      13.583 -12.274 -11.338  0.00  0.00    +0.380 N 
ATOM    118  HZ1 LYS A   5      13.312 -12.069 -10.355  0.00  0.00    -0.089 HD
ATOM    119  HZ2 LYS A   5      13.658 -13.303 -11.471  0.00  0.00    -0.089 HD
ATOM    120  HZ3 LYS A   5      14.500 -11.829 -11.546  0.00  0.00    -0.089 HD
ENDBRANCH 116 117
ENDBRANCH 115 116
ENDBRANCH 114 115
ENDBRANCH 113 114
ENDBRANCH  72 113
ENDBRANCH  68  72
ENDBRANCH  67  70
ENDBRANCH  63  67
ENDBRANCH   1  64
BRANCH   1 121
ATOM    121  CB  LYS A   7       6.435 -17.300 -12.869  0.00  0.00    +0.029 C 
BRANCH 121 122
ATOM    122  CG  LYS A   7       6.776 -17.910 -11.512  0.00  0.00    +0.000 C 
BRANCH 122 123
ATOM    123  CD  LYS A   7       6.054 -19.234 -11.309  0.00  0.00    -0.024 C 
BRANCH 123 124
ATOM    124  CE  LYS A   7       6.606 -19.983 -10.103  0.00  0.00    -0.086 C 
BRANCH 124 125
ATOM    125  NZ  LYS A   7       5.772 -21.160  -9.756  0.00  0.00    +0.380 N 
ATOM    126  HZ1 LYS A   7       6.181 -21.642  -8.930  0.00  0.00    -0.089 HD
ATOM    127  HZ2 LYS A   7       4.807 -20.845  -9.532  0.00  0.00    -0.089 HD
ATOM    128  HZ3 LYS A   7       5.746 -21.815 -10.564  0.00  0.00    -0.089 HD
ENDBRANCH 124 125
ENDBRANCH 123 124
ENDBRANCH 122 123
ENDBRANCH 121 122
ENDBRANCH   1 121
TORSDOF 51
REMARK  Name = ../refined-set-2016/2wtv/2wtv_pocket.pdb
REMARK  217 active torsions:
REMARK  status: ('A' for Active; 'I' for Inactive)
REMARK    1  A    between atoms: _1  and  _3
REMARK    2  A    between atoms: _3  and  _4
REMARK    3  A    between atoms: _3  and  _6
REMARK    4  A    between atoms: _6  and  _7
REMARK    5  A    between atoms: _7  and  _8
REMARK    6  A    between atoms: _8  and  _9
REMARK    7  A    between atoms: _19  and  _20
REMARK    8  A    between atoms: _25  and  _27
REMARK    9  A    between atoms: _27  and  _28
REMARK   10  A    between atoms: _27  and  _30
REMARK   11  A    between atoms: _30  and  _31
REMARK   12  A    between atoms: _34  and  _36
REMARK   13  A    between atoms: _36  and  _37
REMARK   14  A    between atoms: _39  and  _41
REMARK   15  A    between atoms: _41  and  _42
REMARK   16  A    between atoms: _41  and  _44
REMARK   17  A    between atoms: _44  and  _45
REMARK   18  A    between atoms: _45  and  _46
REMARK   19  A    between atoms: _46  and  _47
REMARK   20  A    between atoms: _47  and  _48
REMARK   21  A    between atoms: _52  and  _54
REMARK   22  A    between atoms: _54  and  _55
REMARK   23  A    between atoms: _57  and  _59
REMARK   24  A    between atoms: _59  and  _60
REMARK   25  A    between atoms: _59  and  _62
REMARK   26  A    between atoms: _62  and  _63
REMARK   27  A    between atoms: _63  and  _64
REMARK   28  A    between atoms: _64  and  _65
REMARK   29  A    between atoms: _65  and  _66
REMARK   30  A    between atoms: _70  and  _72
REMARK   31  A    between atoms: _72  and  _73
REMARK   32  A    between atoms: _72  and  _75
REMARK   33  A    between atoms: _75  and  _76
REMARK   34  A    between atoms: _82  and  _84
REMARK   35  A    between atoms: _84  and  _85
REMARK   36  A    between atoms: _87  and  _89
REMARK   37  A    between atoms: _89  and  _90
REMARK   38  A    between atoms: _89  and  _92
REMARK   39  A    between atoms: _92  and  _93
REMARK   40  A    between atoms: _98  and  _100
REMARK   41  A    between atoms: _100  and  _101
REMARK   42  A    between atoms: _100  and  _103
REMARK   43  A    between atoms: _106  and  _108
REMARK   44  A    between atoms: _108  and  _109
REMARK   45  A    between atoms: _108  and  _111
REMARK   46  A    between atoms: _111  and  _112
REMARK   47  A    between atoms: _117  and  _118
REMARK   48  A    between atoms: _120  and  _122
REMARK   49  A    between atoms: _122  and  _123
REMARK   50  A    between atoms: _122  and  _125
REMARK   51  A    between atoms: _125  and  _126
REMARK   52  A    between atoms: _129  and  _131
REMARK   53  A    between atoms: _131  and  _132
REMARK   54  A    between atoms: _131  and  _134
REMARK   55  A    between atoms: _134  and  _135
REMARK   56  A    between atoms: _138  and  _140
REMARK   57  A    between atoms: _140  and  _141
REMARK   58  A    between atoms: _140  and  _143
REMARK   59  A    between atoms: _143  and  _144
REMARK   60  A    between atoms: _147  and  _149
REMARK   61  A    between atoms: _149  and  _150
REMARK   62  A    between atoms: _153  and  _155
REMARK   63  A    between atoms: _155  and  _156
REMARK   64  A    between atoms: _155  and  _158
REMARK   65  A    between atoms: _158  and  _159
REMARK   66  A    between atoms: _162  and  _164
REMARK   67  A    between atoms: _164  and  _165
REMARK   68  A    between atoms: _164  and  _167
REMARK   69  A    between atoms: _167  and  _168
REMARK   70  A    between atoms: _168  and  _169
REMARK   71  A    between atoms: _169  and  _170
REMARK   72  A    between atoms: _170  and  _171
REMARK   73  A    between atoms: _175  and  _177
REMARK   74  A    between atoms: _177  and  _178
REMARK   75  A    between atoms: _177  and  _180
REMARK   76  A    between atoms: _183  and  _185
REMARK   77  A    between atoms: _185  and  _186
REMARK   78  A    between atoms: _185  and  _188
REMARK   79  A    between atoms: _188  and  _189
REMARK   80  A    between atoms: _192  and  _194
REMARK   81  A    between atoms: _194  and  _195
REMARK   82  A    between atoms: _194  and  _197
REMARK   83  A    between atoms: _197  and  _198
REMARK   84  A    between atoms: _201  and  _203
REMARK   85  A    between atoms: _203  and  _204
REMARK   86  A    between atoms: _203  and  _206
REMARK   87  A    between atoms: _206  and  _207
REMARK   88  A    between atoms: _207  and  _208
REMARK   89  A    between atoms: _208  and  _209
REMARK   90  A    between atoms: _218  and  _220
REMARK   91  A    between atoms: _220  and  _221
REMARK   92  A    between atoms: _220  and  _223
REMARK   93  A    between atoms: _223  and  _224
REMARK   94  A    between atoms: _227  and  _229
REMARK   95  A    between atoms: _229  and  _230
REMARK   96  A    between atoms: _229  and  _232
REMARK   97  A    between atoms: _232  and  _233
REMARK   98  A    between atoms: _236  and  _238
REMARK   99  A    between atoms: _238  and  _239
REMARK  100  A    between atoms: _238  and  _241
REMARK  101  A    between atoms: _241  and  _242
REMARK  102  A    between atoms: _245  and  _247
REMARK  103  A    between atoms: _247  and  _248
REMARK  104  A    between atoms: _247  and  _250
REMARK  105  A    between atoms: _250  and  _251
REMARK  106  A    between atoms: _251  and  _252
REMARK  107  A    between atoms: _255  and  _257
REMARK  108  A    between atoms: _257  and  _258
REMARK  109  A    between atoms: _257  and  _260
REMARK  110  A    between atoms: _260  and  _261
REMARK  111  A    between atoms: _266  and  _267
REMARK  112  A    between atoms: _269  and  _271
REMARK  113  A    between atoms: _271  and  _272
REMARK  114  A    between atoms: _276  and  _277
REMARK  115  A    between atoms: _282  and  _284
REMARK  116  A    between atoms: _284  and  _285
REMARK  117  A    between atoms: _284  and  _287
REMARK  118  A    between atoms: _287  and  _288
REMARK  119  A    between atoms: _288  and  _289
REMARK  120  A    between atoms: _289  and  _290
REMARK  121  A    between atoms: _299  and  _301
REMARK  122  A    between atoms: _301  and  _302
REMARK  123  A    between atoms: _304  and  _306
REMARK  124  A    between atoms: _306  and  _307
REMARK  125  A    between atoms: _306  and  _309
REMARK  126  A    between atoms: _309  and  _310
REMARK  127  A    between atoms: _310  and  _311
REMARK  128  A    between atoms: _314  and  _316
REMARK  129  A    between atoms: _316  and  _317
REMARK  130  A    between atoms: _316  and  _319
REMARK  131  A    between atoms: _322  and  _324
REMARK  132  A    between atoms: _324  and  _325
REMARK  133  A    between atoms: _324  and  _327
REMARK  134  A    between atoms: _327  and  _328
REMARK  135  A    between atoms: _333  and  _334
REMARK  136  A    between atoms: _336  and  _338
REMARK  137  A    between atoms: _338  and  _339
REMARK  138  A    between atoms: _338  and  _341
REMARK  139  A    between atoms: _341  and  _342
REMARK  140  A    between atoms: _342  and  _343
REMARK  141  A    between atoms: _343  and  _344
REMARK  142  A    between atoms: _344  and  _345
REMARK  143  A    between atoms: _349  and  _351
REMARK  144  A    between atoms: _351  and  _352
REMARK  145  A    between atoms: _351  and  _354
REMARK  146  A    between atoms: _354  and  _355
REMARK  147  A    between atoms: _355  and  _356
REMARK  148  A    between atoms: _356  and  _357
REMARK  149  A    between atoms: _366  and  _368
REMARK  150  A    between atoms: _368  and  _369
REMARK  151  A    between atoms: _368  and  _371
REMARK  152  A    between atoms: _371  and  _372
REMARK  153  A    between atoms: _376  and  _377
REMARK  154  A    between atoms: _382  and  _384
REMARK  155  A    between atoms: _384  and  _385
REMARK  156  A    between atoms: _384  and  _387
REMARK  157  A    between atoms: _387  and  _388
REMARK  158  A    between atoms: _388  and  _389
REMARK  159  A    between atoms: _392  and  _394
REMARK  160  A    between atoms: _394  and  _395
REMARK  161  A    between atoms: _394  and  _397
REMARK  162  A    between atoms: _397  and  _398
REMARK  163  A    between atoms: _403  and  _405
REMARK  164  A    between atoms: _405  and  _406
REMARK  165  A    between atoms: _405  and  _408
REMARK  166  A    between atoms: _408  and  _409
REMARK  167  A    between atoms: _412  and  _414
REMARK  168  A    between atoms: _414  and  _415
REMARK  169  A    between atoms: _414  and  _417
REMARK  170  A    between atoms: _417  and  _418
REMARK  171  A    between atoms: _421  and  _423
REMARK  172  A    between atoms: _423  and  _424
REMARK  173  A    between atoms: _423  and  _426
REMARK  174  A    between atoms: _426  and  _427
REMARK  175  A    between atoms: _430  and  _432
REMARK  176  A    between atoms: _432  and  _433
REMARK  177  A    between atoms: _435  and  _437
REMARK  178  A    between atoms: _437  and  _438
REMARK  179  A    between atoms: _437  and  _440
REMARK  180  A    between atoms: _440  and  _441
REMARK  181  A    between atoms: _441  and  _442
REMARK  182  A    between atoms: _442  and  _443
REMARK  183  A    between atoms: _443  and  _444
REMARK  184  A    between atoms: _448  and  _450
REMARK  185  A    between atoms: _450  and  _451
REMARK  186  A    between atoms: _450  and  _453
REMARK  187  A    between atoms: _453  and  _454
REMARK  188  A    between atoms: _457  and  _459
REMARK  189  A    between atoms: _459  and  _460
REMARK  190  A    between atoms: _463  and  _465
REMARK  191  A    between atoms: _465  and  _466
REMARK  192  A    between atoms: _465  and  _468
REMARK  193  A    between atoms: _468  and  _469
REMARK  194  A    between atoms: _472  and  _474
REMARK  195  A    between atoms: _474  and  _475
REMARK  196  A    between atoms: _474  and  _477
REMARK  197  A    between atoms: _477  and  _478
REMARK  198  A    between atoms: _484  and  _486
REMARK  199  A    between atoms: _486  and  _487
REMARK  200  A    between atoms: _489  and  _491
REMARK  201  A    between atoms: _491  and  _492
REMARK  202  A    between atoms: _491  and  _494
REMARK  203  A    between atoms: _494  and  _495
REMARK  204  A    between atoms: _505  and  _507
REMARK  205  A    between atoms: _507  and  _508
REMARK  206  A    between atoms: _507  and  _510
REMARK  207  A    between atoms: _510  and  _511
REMARK  208  A    between atoms: _513  and  _515
REMARK  209  A    between atoms: _515  and  _516
REMARK  210  A    between atoms: _515  and  _518
REMARK  211  A    between atoms: _521  and  _523
REMARK  212  A    between atoms: _523  and  _524
REMARK  213  A    between atoms: _523  and  _526
REMARK  214  A    between atoms: _526  and  _527
REMARK  215  A    between atoms: _532  and  _534
REMARK  216  A    between atoms: _534  and  _535
REMARK  217  A    between atoms: _539  and  _540
REMARK                            x       y       z     vdW  Elec       q    Type
REMARK                         _______ _______ _______ _____ _____    ______ ____
ROOT
ATOM      1  C   LEU A   4       0.543  -4.764 -10.630  0.00  0.00    +0.241 C 
ATOM      2  O   LEU A   4       1.772  -4.701 -10.675  0.00  0.00    -0.273 OA
ATOM      3  N   LYS A   5      -0.136  -5.871 -10.889  0.00  0.00    -0.297 N 
ATOM      4  H   LYS A   5      -1.175  -5.842 -10.857  0.00  0.00    +0.150 HD
ENDROOT
BRANCH   3   5
ATOM      5  CA  LYS A   5       0.521  -7.125 -11.217  0.00  0.00    +0.149 C 
BRANCH   5   6
ATOM      6  C   LYS A   5       0.416  -7.375 -12.721  0.00  0.00    +0.241 C 
ATOM      7  O   LYS A   5      -0.686  -7.396 -13.269  0.00  0.00    -0.273 OA
ATOM      8  N   VAL A   6       1.562  -7.557 -13.375  0.00  0.00    -0.297 N 
ATOM      9  H   VAL A   6       2.446  -7.593 -12.828  0.00  0.00    +0.150 HD
BRANCH   8  10
ATOM     10  CA  VAL A   6       1.633  -7.709 -14.830  0.00  0.00    +0.149 C 
BRANCH  10  11
ATOM     11  C   VAL A   6       1.918  -9.146 -15.239  0.00  0.00    +0.241 C 
ATOM     12  O   VAL A   6       2.835  -9.775 -14.719  0.00  0.00    -0.273 OA
ATOM     13  N   LEU A   7       1.141  -9.669 -16.182  0.00  0.00    -0.298 N 
ATOM     14  H   LEU A   7       0.362  -9.105 -16.578  0.00  0.00    +0.150 HD
BRANCH  13  15
ATOM     15  CA  LEU A   7       1.368 -11.026 -16.668  0.00  0.00    +0.137 C 
BRANCH  15  16
ATOM     16  C   LEU A   7       1.509 -11.061 -18.189  0.00  0.00    +0.227 C 
ATOM     17  O   LEU A   7       0.678 -10.508 -18.908  0.00  0.00    -0.286 OA
ENDBRANCH  15  16
BRANCH  15  18
ATOM     18  CB  LEU A   7       0.232 -11.948 -16.220  0.00  0.00    +0.028 C 
BRANCH  18  19
ATOM     19  CG  LEU A   7      -0.062 -11.966 -14.718  0.00  0.00    +0.002 C 
ATOM     20  CD2 LEU A   7       1.016 -12.723 -13.966  0.00  0.00    +0.000 C 
ATOM     21  CD1 LEU A   7      -1.432 -12.557 -14.435  0.00  0.00    +0.000 C 
ENDBRANCH  18  19
ENDBRANCH  15  18
ENDBRANCH  13  15
ENDBRANCH  10  11
BRANCH  10  22
ATOM     22  CB  VAL A   6       2.743  -6.817 -15.423  0.00  0.00    +0.027 C 
ATOM     23  CG2 VAL A   6       2.504  -5.361 -15.054  0.00  0.00    +0.002 C 
ATOM     24  CG1 VAL A   6       2.812  -6.974 -16.937  0.00  0.00    +0.002 C 
ENDBRANCH  10  22
ENDBRANCH   8  10
ENDBRANCH   5   6
BRANCH   5  25
ATOM     25  CB  LYS A   5      -0.149  -8.258 -10.439  0.00  0.00    +0.029 C 
BRANCH  25  26
ATOM     26  CG  LYS A   5       0.485  -9.610 -10.628  0.00  0.00    +0.000 C 
BRANCH  26  27
ATOM     27  CD  LYS A   5      -0.105 -10.606  -9.650  0.00  0.00    -0.024 C 
BRANCH  27  28
ATOM     28  CE  LYS A   5       0.475 -11.979  -9.866  0.00  0.00    -0.086 C 
BRANCH  28  29
ATOM     29  NZ  LYS A   5       1.944 -11.983  -9.640  0.00  0.00    +0.380 N 
ATOM     30  HZ1 LYS A   5       2.144 -11.687  -8.663  0.00  0.00    -0.089 HD
ATOM     31  HZ2 LYS A   5       2.315 -12.942  -9.796  0.00  0.00    -0.089 HD
ATOM     32  HZ3 LYS A   5       2.397 -11.322 -10.303  0.00  0.00    -0.089 HD
ENDBRANCH  28  29
ENDBRANCH  27  28
ENDBRANCH  26  27
ENDBRANCH  25  26
ENDBRANCH   5  25
ENDBRANCH   3   5
BRANCH   1  33
ATOM     33  CA  LEU A   4      -0.292  -3.560 -10.230  0.00  0.00    +0.149 C 
BRANCH  33  36
ATOM     34  C   ALA A   3      -0.780  -3.423  -7.859  0.00  0.00    +0.241 C 
ATOM     35  O   ALA A   3      -1.881  -3.967  -8.022  0.00  0.00    -0.273 OA
ATOM     36  N   LEU A   4       0.050  -3.164  -8.863  0.00  0.00    -0.297 N 
ATOM     37  H   LEU A   4       0.949  -2.676  -8.677  0.00  0.00    +0.150 HD
BRANCH  34  38
ATOM     38  CA  ALA A   3      -0.326  -2.987  -6.470  0.00  0.00    +0.149 C 
ATOM     39  CB  ALA A   3       0.033  -4.186  -5.622  0.00  0.00    +0.031 C 
BRANCH  38  41
ATOM     40  C   LEU A   2      -1.267  -0.894  -5.706  0.00  0.00    +0.241 C 
ATOM     41  N   ALA A   3      -1.385  -2.210  -5.841  0.00  0.00    -0.297 N 
ATOM     42  H   ALA A   3      -2.240  -2.689  -5.495  0.00  0.00    +0.150 HD
ATOM     43  O   LEU A   2      -0.247  -0.286  -6.026  0.00  0.00    -0.273 OA
BRANCH  40  44
ATOM     44  CA  LEU A   2      -2.452  -0.150  -5.106  0.00  0.00    +0.149 C 
BRANCH  44  47
ATOM     45  C   ILE A   1      -2.707   1.968  -3.947  0.00  0.00    +0.238 C 
ATOM     46  O   ILE A   1      -3.612   1.528  -3.226  0.00  0.00    -0.274 OA
ATOM     47  N   LEU A   2      -2.052   1.221  -4.828  0.00  0.00    -0.297 N 
ATOM     48  H   LEU A   2      -1.236   1.625  -5.330  0.00  0.00    +0.150 HD
BRANCH  45  49
ATOM     49  CA  ILE A   1      -2.282   3.429  -3.870  0.00  0.00    +0.145 C 
BRANCH  49  50
ATOM     50  N   ILE A   1      -3.447   4.288  -3.708  0.00  0.00    -0.238 NA
ATOM     51  H   ILE A   1      -3.714   4.600  -2.753  0.00  0.00    +0.142 HD
ENDBRANCH  49  50
BRANCH  49  52
ATOM     52  CB  ILE A   1      -1.273   3.628  -2.719  0.00  0.00    +0.025 C 
ATOM     53  CG2 ILE A   1      -0.233   2.507  -2.705  0.00  0.00    +0.002 C 
BRANCH  52  54
ATOM     54  CG1 ILE A   1      -0.595   4.994  -2.844  0.00  0.00    +0.002 C 
ATOM     55  CD1 ILE A   1       0.011   5.486  -1.545  0.00  0.00    +0.000 C 
ENDBRANCH  52  54
ENDBRANCH  49  52
ENDBRANCH  45  49
ENDBRANCH  44  47
BRANCH  44  56
ATOM     56  CB  LEU A   2      -3.654  -0.161  -6.061  0.00  0.00    +0.029 C 
BRANCH  56  57
ATOM     57  CG  LEU A   2      -3.387   0.499  -7.421  0.00  0.00    +0.002 C 
ATOM     58  CD2 LEU A   2      -4.632   1.180  -7.972  0.00  0.00    +0.000 C 
ATOM     59  CD1 LEU A   2      -2.860  -0.540  -8.404  0.00  0.00    +0.000 C 
ENDBRANCH  56  57
ENDBRANCH  44  56
ENDBRANCH  40  44
ENDBRANCH  38  41
ENDBRANCH  34  38
ENDBRANCH  33  36
BRANCH  33  60
ATOM     60  CB  LEU A   4      -0.092  -2.401 -11.211  0.00  0.00    +0.029 C 
BRANCH  60  61
ATOM     61  CG  LEU A   4      -0.602  -2.639 -12.635  0.00  0.00    +0.002 C 
ATOM     62  CD2 LEU A   4      -2.120  -2.711 -12.644  0.00  0.00    +0.000 C 
ATOM     63  CD1 LEU A   4      -0.110  -1.553 -13.579  0.00  0.00    +0.000 C 
ENDBRANCH  60  61
ENDBRANCH  33  60
ENDBRANCH   1  33
TORSDOF 28
REMARK  Name = ../refined-set-2016/2wtv/2wtv_pocket.pdb
REMARK  217 active torsions:
REMARK  status: ('A' for Active; 'I' for Inactive)
REMARK    1  A    between atoms: _1  and  _3
REMARK    2  A    between atoms: _3  and  _4
REMARK    3  A    between atoms: _3  and  _6
REMARK    4  A    between atoms: _6  and  _7
REMARK    5  A    between atoms: _7  and  _8
REMARK    6  A    between atoms: _8  and  _9
REMARK    7  A    between atoms: _19  and  _20
REMARK    8  A    between atoms: _25  and  _27
REMARK    9  A    between atoms: _27  and  _28
REMARK   10  A    between atoms: _27  and  _30
REMARK   11  A    between atoms: _30  and  _31
REMARK   12  A    between atoms: _34  and  _36
REMARK   13  A    between atoms: _36  and  _37
REMARK   14  A    between atoms: _39  and  _41
REMARK   15  A    between atoms: _41  and  _42
REMARK   16  A    between atoms: _41  and  _44
REMARK   17  A    between atoms: _44  and  _45
REMARK   18  A    between atoms: _45  and  _46
REMARK   19  A    between atoms: _46  and  _47
REMARK   20  A    between atoms: _47  and  _48
REMARK   21  A    between atoms: _52  and  _54
REMARK   22  A    between atoms: _54  and  _55
REMARK   23  A    between atoms: _57  and  _59
REMARK   24  A    between atoms: _59  and  _60
REMARK   25  A    between atoms: _59  and  _62
REMARK   26  A    between atoms: _62  and  _63
REMARK   27  A    between atoms: _63  and  _64
REMARK   28  A    between atoms: _64  and  _65
REMARK   29  A    between atoms: _65  and  _66
REMARK   30  A    between atoms: _70  and  _72
REMARK   31  A    between atoms: _72  and  _73
REMARK   32  A    between atoms: _72  and  _75
REMARK   33  A    between atoms: _75  and  _76
REMARK   34  A    between atoms: _82  and  _84
REMARK   35  A    between atoms: _84  and  _85
REMARK   36  A    between atoms: _87  and  _89
REMARK   37  A    between atoms: _89  and  _90
REMARK   38  A    between atoms: _89  and  _92
REMARK   39  A    between atoms: _92  and  _93
REMARK   40  A    between atoms: _98  and  _100
REMARK   41  A    between atoms: _100  and  _101
REMARK   42  A    between atoms: _100  and  _103
REMARK   43  A    between atoms: _106  and  _108
REMARK   44  A    between atoms: _108  and  _109
REMARK   45  A    between atoms: _108  and  _111
REMARK   46  A    between atoms: _111  and  _112
REMARK   47  A    between atoms: _117  and  _118
REMARK   48  A    between atoms: _120  and  _122
REMARK   49  A    between atoms: _122  and  _123
REMARK   50  A    between atoms: _122  and  _125
REMARK   51  A    between atoms: _125  and  _126
REMARK   52  A    between atoms: _129  and  _131
REMARK   53  A    between atoms: _131  and  _132
REMARK   54  A    between atoms: _131  and  _134
REMARK   55  A    between atoms: _134  and  _135
REMARK   56  A    between atoms: _138  and  _140
REMARK   57  A    between atoms: _140  and  _141
REMARK   58  A    between atoms: _140  and  _143
REMARK   59  A    between atoms: _143  and  _144
REMARK   60  A    between atoms: _147  and  _149
REMARK   61  A    between atoms: _149  and  _150
REMARK   62  A    between atoms: _153  and  _155
REMARK   63  A    between atoms: _155  and  _156
REMARK   64  A    between atoms: _155  and  _158
REMARK   65  A    between atoms: _158  and  _159
REMARK   66  A    between atoms: _162  and  _164
REMARK   67  A    between atoms: _164  and  _165
REMARK   68  A    between atoms: _164  and  _167
REMARK   69  A    between atoms: _167  and  _168
REMARK   70  A    between atoms: _168  and  _169
REMARK   71  A    between atoms: _169  and  _170
REMARK   72  A    between atoms: _170  and  _171
REMARK   73  A    between atoms: _175  and  _177
REMARK   74  A    between atoms: _177  and  _178
REMARK   75  A    between atoms: _177  and  _180
REMARK   76  A    between atoms: _183  and  _185
REMARK   77  A    between atoms: _185  and  _186
REMARK   78  A    between atoms: _185  and  _188
REMARK   79  A    between atoms: _188  and  _189
REMARK   80  A    between atoms: _192  and  _194
REMARK   81  A    between atoms: _194  and  _195
REMARK   82  A    between atoms: _194  and  _197
REMARK   83  A    between atoms: _197  and  _198
REMARK   84  A    between atoms: _201  and  _203
REMARK   85  A    between atoms: _203  and  _204
REMARK   86  A    between atoms: _203  and  _206
REMARK   87  A    between atoms: _206  and  _207
REMARK   88  A    between atoms: _207  and  _208
REMARK   89  A    between atoms: _208  and  _209
REMARK   90  A    between atoms: _218  and  _220
REMARK   91  A    between atoms: _220  and  _221
REMARK   92  A    between atoms: _220  and  _223
REMARK   93  A    between atoms: _223  and  _224
REMARK   94  A    between atoms: _227  and  _229
REMARK   95  A    between atoms: _229  and  _230
REMARK   96  A    between atoms: _229  and  _232
REMARK   97  A    between atoms: _232  and  _233
REMARK   98  A    between atoms: _236  and  _238
REMARK   99  A    between atoms: _238  and  _239
REMARK  100  A    between atoms: _238  and  _241
REMARK  101  A    between atoms: _241  and  _242
REMARK  102  A    between atoms: _245  and  _247
REMARK  103  A    between atoms: _247  and  _248
REMARK  104  A    between atoms: _247  and  _250
REMARK  105  A    between atoms: _250  and  _251
REMARK  106  A    between atoms: _251  and  _252
REMARK  107  A    between atoms: _255  and  _257
REMARK  108  A    between atoms: _257  and  _258
REMARK  109  A    between atoms: _257  and  _260
REMARK  110  A    between atoms: _260  and  _261
REMARK  111  A    between atoms: _266  and  _267
REMARK  112  A    between atoms: _269  and  _271
REMARK  113  A    between atoms: _271  and  _272
REMARK  114  A    between atoms: _276  and  _277
REMARK  115  A    between atoms: _282  and  _284
REMARK  116  A    between atoms: _284  and  _285
REMARK  117  A    between atoms: _284  and  _287
REMARK  118  A    between atoms: _287  and  _288
REMARK  119  A    between atoms: _288  and  _289
REMARK  120  A    between atoms: _289  and  _290
REMARK  121  A    between atoms: _299  and  _301
REMARK  122  A    between atoms: _301  and  _302
REMARK  123  A    between atoms: _304  and  _306
REMARK  124  A    between atoms: _306  and  _307
REMARK  125  A    between atoms: _306  and  _309
REMARK  126  A    between atoms: _309  and  _310
REMARK  127  A    between atoms: _310  and  _311
REMARK  128  A    between atoms: _314  and  _316
REMARK  129  A    between atoms: _316  and  _317
REMARK  130  A    between atoms: _316  and  _319
REMARK  131  A    between atoms: _322  and  _324
REMARK  132  A    between atoms: _324  and  _325
REMARK  133  A    between atoms: _324  and  _327
REMARK  134  A    between atoms: _327  and  _328
REMARK  135  A    between atoms: _333  and  _334
REMARK  136  A    between atoms: _336  and  _338
REMARK  137  A    between atoms: _338  and  _339
REMARK  138  A    between atoms: _338  and  _341
REMARK  139  A    between atoms: _341  and  _342
REMARK  140  A    between atoms: _342  and  _343
REMARK  141  A    between atoms: _343  and  _344
REMARK  142  A    between atoms: _344  and  _345
REMARK  143  A    between atoms: _349  and  _351
REMARK  144  A    between atoms: _351  and  _352
REMARK  145  A    between atoms: _351  and  _354
REMARK  146  A    between atoms: _354  and  _355
REMARK  147  A    between atoms: _355  and  _356
REMARK  148  A    between atoms: _356  and  _357
REMARK  149  A    between atoms: _366  and  _368
REMARK  150  A    between atoms: _368  and  _369
REMARK  151  A    between atoms: _368  and  _371
REMARK  152  A    between atoms: _371  and  _372
REMARK  153  A    between atoms: _376  and  _377
REMARK  154  A    between atoms: _382  and  _384
REMARK  155  A    between atoms: _384  and  _385
REMARK  156  A    between atoms: _384  and  _387
REMARK  157  A    between atoms: _387  and  _388
REMARK  158  A    between atoms: _388  and  _389
REMARK  159  A    between atoms: _392  and  _394
REMARK  160  A    between atoms: _394  and  _395
REMARK  161  A    between atoms: _394  and  _397
REMARK  162  A    between atoms: _397  and  _398
REMARK  163  A    between atoms: _403  and  _405
REMARK  164  A    between atoms: _405  and  _406
REMARK  165  A    between atoms: _405  and  _408
REMARK  166  A    between atoms: _408  and  _409
REMARK  167  A    between atoms: _412  and  _414
REMARK  168  A    between atoms: _414  and  _415
REMARK  169  A    between atoms: _414  and  _417
REMARK  170  A    between atoms: _417  and  _418
REMARK  171  A    between atoms: _421  and  _423
REMARK  172  A    between atoms: _423  and  _424
REMARK  173  A    between atoms: _423  and  _426
REMARK  174  A    between atoms: _426  and  _427
REMARK  175  A    between atoms: _430  and  _432
REMARK  176  A    between atoms: _432  and  _433
REMARK  177  A    between atoms: _435  and  _437
REMARK  178  A    between atoms: _437  and  _438
REMARK  179  A    between atoms: _437  and  _440
REMARK  180  A    between atoms: _440  and  _441
REMARK  181  A    between atoms: _441  and  _442
REMARK  182  A    between atoms: _442  and  _443
REMARK  183  A    between atoms: _443  and  _444
REMARK  184  A    between atoms: _448  and  _450
REMARK  185  A    between atoms: _450  and  _451
REMARK  186  A    between atoms: _450  and  _453
REMARK  187  A    between atoms: _453  and  _454
REMARK  188  A    between atoms: _457  and  _459
REMARK  189  A    between atoms: _459  and  _460
REMARK  190  A    between atoms: _463  and  _465
REMARK  191  A    between atoms: _465  and  _466
REMARK  192  A    between atoms: _465  and  _468
REMARK  193  A    between atoms: _468  and  _469
REMARK  194  A    between atoms: _472  and  _474
REMARK  195  A    between atoms: _474  and  _475
REMARK  196  A    between atoms: _474  and  _477
REMARK  197  A    between atoms: _477  and  _478
REMARK  198  A    between atoms: _484  and  _486
REMARK  199  A    between atoms: _486  and  _487
REMARK  200  A    between atoms: _489  and  _491
REMARK  201  A    between atoms: _491  and  _492
REMARK  202  A    between atoms: _491  and  _494
REMARK  203  A    between atoms: _494  and  _495
REMARK  204  A    between atoms: _505  and  _507
REMARK  205  A    between atoms: _507  and  _508
REMARK  206  A    between atoms: _507  and  _510
REMARK  207  A    between atoms: _510  and  _511
REMARK  208  A    between atoms: _513  and  _515
REMARK  209  A    between atoms: _515  and  _516
REMARK  210  A    between atoms: _515  and  _518
REMARK  211  A    between atoms: _521  and  _523
REMARK  212  A    between atoms: _523  and  _524
REMARK  213  A    between atoms: _523  and  _526
REMARK  214  A    between atoms: _526  and  _527
REMARK  215  A    between atoms: _532  and  _534
REMARK  216  A    between atoms: _534  and  _535
REMARK  217  A    between atoms: _539  and  _540
REMARK                            x       y       z     vdW  Elec       q    Type
REMARK                         _______ _______ _______ _____ _____    ______ ____
ROOT
ATOM      1  CA  ARG A   2      -8.576  -7.698  -2.642  0.00  0.00    +0.137 C 
ENDROOT
BRANCH   1   3
ATOM      2  C   LEU A   1      -7.032  -9.206  -1.525  0.00  0.00    +0.238 C 
ATOM      3  N   ARG A   2      -7.440  -7.970  -1.772  0.00  0.00    -0.298 N 
ATOM      4  H   ARG A   2      -6.936  -7.173  -1.333  0.00  0.00    +0.150 HD
ATOM      5  O   LEU A   1      -7.478 -10.183  -2.118  0.00  0.00    -0.274 OA
BRANCH   2   6
ATOM      6  CA  LEU A   1      -5.984  -9.359  -0.425  0.00  0.00    +0.145 C 
BRANCH   6   7
ATOM      7  N   LEU A   1      -6.431 -10.370   0.527  0.00  0.00    -0.238 NA
ATOM      8  H   LEU A   1      -5.808 -11.170   0.757  0.00  0.00    +0.142 HD
ENDBRANCH   6   7
BRANCH   6   9
ATOM      9  CB  LEU A   1      -4.619  -9.708  -1.013  0.00  0.00    +0.026 C 
BRANCH   9  10
ATOM     10  CG  LEU A   1      -3.804  -8.494  -1.462  0.00  0.00    +0.002 C 
ATOM     11  CD2 LEU A   1      -3.267  -7.756  -0.243  0.00  0.00    +0.000 C 
ATOM     12  CD1 LEU A   1      -2.657  -8.905  -2.386  0.00  0.00    +0.000 C 
ENDBRANCH   9  10
ENDBRANCH   6   9
ENDBRANCH   2   6
ENDBRANCH   1   3
BRANCH   1  13
ATOM     13  C   ARG A   2      -8.182  -7.504  -4.113  0.00  0.00    +0.227 C 
ATOM     14  O   ARG A   2      -7.235  -6.780  -4.428  0.00  0.00    -0.286 OA
ENDBRANCH   1  13
BRANCH   1  15
ATOM     15  CB  ARG A   2      -9.334  -6.475  -2.109  0.00  0.00    +0.031 C 
BRANCH  15  16
ATOM     16  CG  ARG A   2     -10.372  -5.899  -3.046  0.00  0.00    +0.045 C 
BRANCH  16  17
ATOM     17  CD  ARG A   2     -11.597  -6.788  -3.216  0.00  0.00    +0.174 C 
BRANCH  17  18
ATOM     18  NE  ARG A   2     -12.482  -6.191  -4.204  0.00  0.00    -0.265 N 
ATOM     19  HE  ARG A   2     -12.420  -5.162  -4.344  0.00  0.00    +0.259 HD
ATOM     20  CZ  ARG A   2     -13.362  -6.858  -4.940  0.00  0.00    +0.342 C 
ATOM     21  NH2 ARG A   2     -13.503  -8.169  -4.795  0.00  0.00    -0.292 N 
ATOM     22 HH21 ARG A   2     -12.922  -8.681  -4.101  0.00  0.00    +0.255 HD
ATOM     23 HH22 ARG A   2     -14.195  -8.685  -5.375  0.00  0.00    +0.255 HD
ATOM     24  NH1 ARG A   2     -14.102  -6.206  -5.826  0.00  0.00    -0.292 N 
ATOM     25 HH11 ARG A   2     -13.991  -5.178  -5.941  0.00  0.00    +0.255 HD
ATOM     26 HH12 ARG A   2     -14.794  -6.722  -6.406  0.00  0.00    +0.255 HD
ENDBRANCH  17  18
ENDBRANCH  16  17
ENDBRANCH  15  16
ENDBRANCH   1  15
TORSDOF 10
REMARK  Name = ../refined-set-2016/2wtv/2wtv_pocket.pdb
REMARK  217 active torsions:
REMARK  status: ('A' for Active; 'I' for Inactive)
REMARK    1  A    between atoms: _1  and  _3
REMARK    2  A    between atoms: _3  and  _4
REMARK    3  A    between atoms: _3  and  _6
REMARK    4  A    between atoms: _6  and  _7
REMARK    5  A    between atoms: _7  and  _8
REMARK    6  A    between atoms: _8  and  _9
REMARK    7  A    between atoms: _19  and  _20
REMARK    8  A    between atoms: _25  and  _27
REMARK    9  A    between atoms: _27  and  _28
REMARK   10  A    between atoms: _27  and  _30
REMARK   11  A    between atoms: _30  and  _31
REMARK   12  A    between atoms: _34  and  _36
REMARK   13  A    between atoms: _36  and  _37
REMARK   14  A    between atoms: _39  and  _41
REMARK   15  A    between atoms: _41  and  _42
REMARK   16  A    between atoms: _41  and  _44
REMARK   17  A    between atoms: _44  and  _45
REMARK   18  A    between atoms: _45  and  _46
REMARK   19  A    between atoms: _46  and  _47
REMARK   20  A    between atoms: _47  and  _48
REMARK   21  A    between atoms: _52  and  _54
REMARK   22  A    between atoms: _54  and  _55
REMARK   23  A    between atoms: _57  and  _59
REMARK   24  A    between atoms: _59  and  _60
REMARK   25  A    between atoms: _59  and  _62
REMARK   26  A    between atoms: _62  and  _63
REMARK   27  A    between atoms: _63  and  _64
REMARK   28  A    between atoms: _64  and  _65
REMARK   29  A    between atoms: _65  and  _66
REMARK   30  A    between atoms: _70  and  _72
REMARK   31  A    between atoms: _72  and  _73
REMARK   32  A    between atoms: _72  and  _75
REMARK   33  A    between atoms: _75  and  _76
REMARK   34  A    between atoms: _82  and  _84
REMARK   35  A    between atoms: _84  and  _85
REMARK   36  A    between atoms: _87  and  _89
REMARK   37  A    between atoms: _89  and  _90
REMARK   38  A    between atoms: _89  and  _92
REMARK   39  A    between atoms: _92  and  _93
REMARK   40  A    between atoms: _98  and  _100
REMARK   41  A    between atoms: _100  and  _101
REMARK   42  A    between atoms: _100  and  _103
REMARK   43  A    between atoms: _106  and  _108
REMARK   44  A    between atoms: _108  and  _109
REMARK   45  A    between atoms: _108  and  _111
REMARK   46  A    between atoms: _111  and  _112
REMARK   47  A    between atoms: _117  and  _118
REMARK   48  A    between atoms: _120  and  _122
REMARK   49  A    between atoms: _122  and  _123
REMARK   50  A    between atoms: _122  and  _125
REMARK   51  A    between atoms: _125  and  _126
REMARK   52  A    between atoms: _129  and  _131
REMARK   53  A    between atoms: _131  and  _132
REMARK   54  A    between atoms: _131  and  _134
REMARK   55  A    between atoms: _134  and  _135
REMARK   56  A    between atoms: _138  and  _140
REMARK   57  A    between atoms: _140  and  _141
REMARK   58  A    between atoms: _140  and  _143
REMARK   59  A    between atoms: _143  and  _144
REMARK   60  A    between atoms: _147  and  _149
REMARK   61  A    between atoms: _149  and  _150
REMARK   62  A    between atoms: _153  and  _155
REMARK   63  A    between atoms: _155  and  _156
REMARK   64  A    between atoms: _155  and  _158
REMARK   65  A    between atoms: _158  and  _159
REMARK   66  A    between atoms: _162  and  _164
REMARK   67  A    between atoms: _164  and  _165
REMARK   68  A    between atoms: _164  and  _167
REMARK   69  A    between atoms: _167  and  _168
REMARK   70  A    between atoms: _168  and  _169
REMARK   71  A    between atoms: _169  and  _170
REMARK   72  A    between atoms: _170  and  _171
REMARK   73  A    between atoms: _175  and  _177
REMARK   74  A    between atoms: _177  and  _178
REMARK   75  A    between atoms: _177  and  _180
REMARK   76  A    between atoms: _183  and  _185
REMARK   77  A    between atoms: _185  and  _186
REMARK   78  A    between atoms: _185  and  _188
REMARK   79  A    between atoms: _188  and  _189
REMARK   80  A    between atoms: _192  and  _194
REMARK   81  A    between atoms: _194  and  _195
REMARK   82  A    between atoms: _194  and  _197
REMARK   83  A    between atoms: _197  and  _198
REMARK   84  A    between atoms: _201  and  _203
REMARK   85  A    between atoms: _203  and  _204
REMARK   86  A    between atoms: _203  and  _206
REMARK   87  A    between atoms: _206  and  _207
REMARK   88  A    between atoms: _207  and  _208
REMARK   89  A    between atoms: _208  and  _209
REMARK   90  A    between atoms: _218  and  _220
REMARK   91  A    between atoms: _220  and  _221
REMARK   92  A    between atoms: _220  and  _223
REMARK   93  A    between atoms: _223  and  _224
REMARK   94  A    between atoms: _227  and  _229
REMARK   95  A    between atoms: _229  and  _230
REMARK   96  A    between atoms: _229  and  _232
REMARK   97  A    between atoms: _232  and  _233
REMARK   98  A    between atoms: _236  and  _238
REMARK   99  A    between atoms: _238  and  _239
REMARK  100  A    between atoms: _238  and  _241
REMARK  101  A    between atoms: _241  and  _242
REMARK  102  A    between atoms: _245  and  _247
REMARK  103  A    between atoms: _247  and  _248
REMARK  104  A    between atoms: _247  and  _250
REMARK  105  A    between atoms: _250  and  _251
REMARK  106  A    between atoms: _251  and  _252
REMARK  107  A    between atoms: _255  and  _257
REMARK  108  A    between atoms: _257  and  _258
REMARK  109  A    between atoms: _257  and  _260
REMARK  110  A    between atoms: _260  and  _261
REMARK  111  A    between atoms: _266  and  _267
REMARK  112  A    between atoms: _269  and  _271
REMARK  113  A    between atoms: _271  and  _272
REMARK  114  A    between atoms: _276  and  _277
REMARK  115  A    between atoms: _282  and  _284
REMARK  116  A    between atoms: _284  and  _285
REMARK  117  A    between atoms: _284  and  _287
REMARK  118  A    between atoms: _287  and  _288
REMARK  119  A    between atoms: _288  and  _289
REMARK  120  A    between atoms: _289  and  _290
REMARK  121  A    between atoms: _299  and  _301
REMARK  122  A    between atoms: _301  and  _302
REMARK  123  A    between atoms: _304  and  _306
REMARK  124  A    between atoms: _306  and  _307
REMARK  125  A    between atoms: _306  and  _309
REMARK  126  A    between atoms: _309  and  _310
REMARK  127  A    between atoms: _310  and  _311
REMARK  128  A    between atoms: _314  and  _316
REMARK  129  A    between atoms: _316  and  _317
REMARK  130  A    between atoms: _316  and  _319
REMARK  131  A    between atoms: _322  and  _324
REMARK  132  A    between atoms: _324  and  _325
REMARK  133  A    between atoms: _324  and  _327
REMARK  134  A    between atoms: _327  and  _328
REMARK  135  A    between atoms: _333  and  _334
REMARK  136  A    between atoms: _336  and  _338
REMARK  137  A    between atoms: _338  and  _339
REMARK  138  A    between atoms: _338  and  _341
REMARK  139  A    between atoms: _341  and  _342
REMARK  140  A    between atoms: _342  and  _343
REMARK  141  A    between atoms: _343  and  _344
REMARK  142  A    between atoms: _344  and  _345
REMARK  143  A    between atoms: _349  and  _351
REMARK  144  A    between atoms: _351  and  _352
REMARK  145  A    between atoms: _351  and  _354
REMARK  146  A    between atoms: _354  and  _355
REMARK  147  A    between atoms: _355  and  _356
REMARK  148  A    between atoms: _356  and  _357
REMARK  149  A    between atoms: _366  and  _368
REMARK  150  A    between atoms: _368  and  _369
REMARK  151  A    between atoms: _368  and  _371
REMARK  152  A    between atoms: _371  and  _372
REMARK  153  A    between atoms: _376  and  _377
REMARK  154  A    between atoms: _382  and  _384
REMARK  155  A    between atoms: _384  and  _385
REMARK  156  A    between atoms: _384  and  _387
REMARK  157  A    between atoms: _387  and  _388
REMARK  158  A    between atoms: _388  and  _389
REMARK  159  A    between atoms: _392  and  _394
REMARK  160  A    between atoms: _394  and  _395
REMARK  161  A    between atoms: _394  and  _397
REMARK  162  A    between atoms: _397  and  _398
REMARK  163  A    between atoms: _403  and  _405
REMARK  164  A    between atoms: _405  and  _406
REMARK  165  A    between atoms: _405  and  _408
REMARK  166  A    between atoms: _408  and  _409
REMARK  167  A    between atoms: _412  and  _414
REMARK  168  A    between atoms: _414  and  _415
REMARK  169  A    between atoms: _414  and  _417
REMARK  170  A    between atoms: _417  and  _418
REMARK  171  A    between atoms: _421  and  _423
REMARK  172  A    between atoms: _423  and  _424
REMARK  173  A    between atoms: _423  and  _426
REMARK  174  A    between atoms: _426  and  _427
REMARK  175  A    between atoms: _430  and  _432
REMARK  176  A    between atoms: _432  and  _433
REMARK  177  A    between atoms: _435  and  _437
REMARK  178  A    between atoms: _437  and  _438
REMARK  179  A    between atoms: _437  and  _440
REMARK  180  A    between atoms: _440  and  _441
REMARK  181  A    between atoms: _441  and  _442
REMARK  182  A    between atoms: _442  and  _443
REMARK  183  A    between atoms: _443  and  _444
REMARK  184  A    between atoms: _448  and  _450
REMARK  185  A    between atoms: _450  and  _451
REMARK  186  A    between atoms: _450  and  _453
REMARK  187  A    between atoms: _453  and  _454
REMARK  188  A    between atoms: _457  and  _459
REMARK  189  A    between atoms: _459  and  _460
REMARK  190  A    between atoms: _463  and  _465
REMARK  191  A    between atoms: _465  and  _466
REMARK  192  A    between atoms: _465  and  _468
REMARK  193  A    between atoms: _468  and  _469
REMARK  194  A    between atoms: _472  and  _474
REMARK  195  A    between atoms: _474  and  _475
REMARK  196  A    between atoms: _474  and  _477
REMARK  197  A    between atoms: _477  and  _478
REMARK  198  A    between atoms: _484  and  _486
REMARK  199  A    between atoms: _486  and  _487
REMARK  200  A    between atoms: _489  and  _491
REMARK  201  A    between atoms: _491  and  _492
REMARK  202  A    between atoms: _491  and  _494
REMARK  203  A    between atoms: _494  and  _495
REMARK  204  A    between atoms: _505  and  _507
REMARK  205  A    between atoms: _507  and  _508
REMARK  206  A    between atoms: _507  and  _510
REMARK  207  A    between atoms: _510  and  _511
REMARK  208  A    between atoms: _513  and  _515
REMARK  209  A    between atoms: _515  and  _516
REMARK  210  A    between atoms: _515  and  _518
REMARK  211  A    between atoms: _521  and  _523
REMARK  212  A    between atoms: _523  and  _524
REMARK  213  A    between atoms: _523  and  _526
REMARK  214  A    between atoms: _526  and  _527
REMARK  215  A    between atoms: _532  and  _534
REMARK  216  A    between atoms: _534  and  _535
REMARK  217  A    between atoms: _539  and  _540
REMARK                            x       y       z     vdW  Elec       q    Type
REMARK                         _______ _______ _______ _____ _____    ______ ____
ROOT
ATOM      1  C   PRO A   7       2.910  -1.996   3.979  0.00  0.00    +0.241 C 
ATOM      2  N   ARG A   8       2.699  -3.128   4.639  0.00  0.00    -0.297 N 
ATOM      3  H   ARG A   8       1.835  -3.681   4.467  0.00  0.00    +0.150 HD
ATOM      4  O   PRO A   7       3.936  -1.333   4.105  0.00  0.00    -0.273 OA
ENDROOT
BRANCH   1  10
ATOM      5  C   ALA A   6       0.959  -3.619   2.097  0.00  0.00    +0.244 C 
ATOM      6  N   PRO A   7       0.762  -2.484   2.787  0.00  0.00    -0.272 N 
ATOM      7  CD  PRO A   7      -0.502  -2.100   3.429  0.00  0.00    +0.094 C 
ATOM      8  CG  PRO A   7      -0.376  -0.619   3.520  0.00  0.00    +0.024 C 
ATOM      9  CB  PRO A   7       1.085  -0.332   3.689  0.00  0.00    +0.031 C 
ATOM     10  CA  PRO A   7       1.823  -1.500   3.035  0.00  0.00    +0.152 C 
ATOM     11  O   ALA A   6       2.078  -4.038   1.807  0.00  0.00    -0.273 OA
BRANCH   5  12
ATOM     12  CA  ALA A   6      -0.285  -4.395   1.678  0.00  0.00    +0.149 C 
ATOM     13  CB  ALA A   6      -0.149  -5.863   2.019  0.00  0.00    +0.031 C 
BRANCH  12  16
ATOM     14  C   TYR A   5      -1.352  -3.311  -0.212  0.00  0.00    +0.241 C 
ATOM     15  O   TYR A   5      -2.108  -2.691   0.537  0.00  0.00    -0.273 OA
ATOM     16  N   ALA A   6      -0.487  -4.210   0.238  0.00  0.00    -0.297 N 
ATOM     17  H   ALA A   6       0.053  -4.789  -0.437  0.00  0.00    +0.150 HD
BRANCH  14  18
ATOM     18  CA  TYR A   5      -1.390  -3.079  -1.722  0.00  0.00    +0.153 C 
BRANCH  18  20
ATOM     19  C   GLU A   4      -3.314  -4.291  -2.620  0.00  0.00    +0.241 C 
ATOM     20  N   TYR A   5      -2.763  -3.153  -2.211  0.00  0.00    -0.297 N 
ATOM     21  H   TYR A   5      -3.331  -2.283  -2.240  0.00  0.00    +0.150 HD
ATOM     22  O   GLU A   4      -2.674  -5.341  -2.738  0.00  0.00    -0.273 OA
BRANCH  19  23
ATOM     23  CA  GLU A   4      -4.807  -4.230  -2.966  0.00  0.00    +0.149 C 
BRANCH  23  25
ATOM     24  C   LEU A   3      -4.372  -4.599  -5.323  0.00  0.00    +0.241 C 
ATOM     25  N   GLU A   4      -5.044  -4.913  -4.223  0.00  0.00    -0.297 N 
ATOM     26  H   GLU A   4      -5.758  -5.668  -4.263  0.00  0.00    +0.150 HD
ATOM     27  O   LEU A   3      -3.657  -3.589  -5.428  0.00  0.00    -0.273 OA
BRANCH  24  28
ATOM     28  CA  LEU A   3      -4.531  -5.589  -6.463  0.00  0.00    +0.149 C 
BRANCH  28  30
ATOM     29  C   ILE A   2      -5.504  -4.931  -8.593  0.00  0.00    +0.241 C 
ATOM     30  N   LEU A   3      -4.442  -4.992  -7.793  0.00  0.00    -0.297 N 
ATOM     31  H   LEU A   3      -3.533  -4.608  -8.121  0.00  0.00    +0.150 HD
ATOM     32  O   ILE A   2      -6.635  -5.242  -8.224  0.00  0.00    -0.273 OA
BRANCH  29  33
ATOM     33  CA  ILE A   2      -5.263  -4.445 -10.018  0.00  0.00    +0.148 C 
BRANCH  33  36
ATOM     34  C   LEU A   1      -4.121  -6.187 -11.267  0.00  0.00    +0.238 C 
ATOM     35  O   LEU A   1      -3.013  -5.809 -10.875  0.00  0.00    -0.274 OA
ATOM     36  N   ILE A   2      -5.252  -5.576 -10.933  0.00  0.00    -0.297 N 
ATOM     37  H   ILE A   2      -6.150  -5.914 -11.335  0.00  0.00    +0.150 HD
BRANCH  34  38
ATOM     38  CA  LEU A   1      -4.250  -7.386 -12.198  0.00  0.00    +0.145 C 
BRANCH  38  39
ATOM     39  N   LEU A   1      -3.403  -7.142 -13.351  0.00  0.00    -0.238 NA
ATOM     40  H   LEU A   1      -2.375  -7.282 -13.273  0.00  0.00    +0.142 HD
ENDBRANCH  38  39
BRANCH  38  41
ATOM     41  CB  LEU A   1      -3.816  -8.669 -11.491  0.00  0.00    +0.026 C 
BRANCH  41  42
ATOM     42  CG  LEU A   1      -4.413 -10.034 -11.847  0.00  0.00    +0.002 C 
ATOM     43  CD2 LEU A   1      -3.371 -11.124 -11.645  0.00  0.00    +0.000 C 
ATOM     44  CD1 LEU A   1      -5.006 -10.113 -13.231  0.00  0.00    +0.000 C 
ENDBRANCH  41  42
ENDBRANCH  38  41
ENDBRANCH  34  38
ENDBRANCH  33  36
BRANCH  33  45
ATOM     45  CB  ILE A   2      -6.360  -3.444 -10.389  0.00  0.00    +0.027 C 
ATOM     46  CG2 ILE A   2      -6.255  -2.206  -9.507  0.00  0.00    +0.002 C 
BRANCH  45  47
ATOM     47  CG1 ILE A   2      -6.261  -3.085 -11.873  0.00  0.00    +0.002 C 
ATOM     48  CD1 ILE A   2      -7.387  -2.191 -12.379  0.00  0.00    +0.000 C 
ENDBRANCH  45  47
ENDBRANCH  33  45
ENDBRANCH  29  33
ENDBRANCH  28  30
BRANCH  28  49
ATOM     49  CB  LEU A   3      -3.488  -6.697  -6.299  0.00  0.00    +0.029 C 
BRANCH  49  50
ATOM     50  CG  LEU A   3      -3.697  -7.964  -7.128  0.00  0.00    +0.002 C 
ATOM     51  CD2 LEU A   3      -4.786  -8.831  -6.516  0.00  0.00    +0.000 C 
ATOM     52  CD1 LEU A   3      -2.400  -8.730  -7.253  0.00  0.00    +0.000 C 
ENDBRANCH  49  50
ENDBRANCH  28  49
ENDBRANCH  24  28
ENDBRANCH  23  25
BRANCH  23  53
ATOM     53  CB  GLU A   4      -5.648  -4.872  -1.853  0.00  0.00    +0.041 C 
BRANCH  53  54
ATOM     54  CG  GLU A   4      -5.293  -4.384  -0.452  0.00  0.00    +0.116 C 
BRANCH  54  55
ATOM     55  CD  GLU A   4      -6.183  -4.981   0.634  0.00  0.00    +0.365 C 
ATOM     56  OE2 GLU A   4      -6.172  -4.450   1.768  0.00  0.00    -0.246 OA
ATOM     57  OE1 GLU A   4      -6.888  -5.978   0.360  0.00  0.00    -0.246 OA
ENDBRANCH  54  55
ENDBRANCH  53  54
ENDBRANCH  23  53
ENDBRANCH  19  23
ENDBRANCH  18  20
BRANCH  18  58
ATOM     58  CB  TYR A   5      -0.810  -1.702  -2.036  0.00  0.00    +0.055 C 
BRANCH  58  59
ATOM     59  CG  TYR A   5       0.618  -1.497  -1.584  0.00  0.00    -0.020 A 
ATOM     60  CD2 TYR A   5       0.954  -0.462  -0.716  0.00  0.00    -0.001 A 
ATOM     61  CE2 TYR A   5       2.268  -0.261  -0.319  0.00  0.00    +0.036 A 
ATOM     62  CZ  TYR A   5       3.262  -1.108  -0.788  0.00  0.00    +0.134 A 
ATOM     63  CE1 TYR A   5       2.952  -2.131  -1.644  0.00  0.00    +0.036 A 
ATOM     64  CD1 TYR A   5       1.633  -2.322  -2.039  0.00  0.00    -0.001 A 
BRANCH  62  65
ATOM     65  OH  TYR A   5       4.570  -0.928  -0.403  0.00  0.00    -0.506 OA
ATOM     66  HH  TYR A   5       5.128  -0.758  -1.203  0.00  0.00    +0.292 HD
ENDBRANCH  62  65
ENDBRANCH  58  59
ENDBRANCH  18  58
ENDBRANCH  14  18
ENDBRANCH  12  16
ENDBRANCH   5  12
ENDBRANCH   1  10
BRANCH   2  67
ATOM     67  CA  ARG A   8       3.688  -3.593   5.608  0.00  0.00    +0.149 C 
BRANCH  67  68
ATOM     68  C   ARG A   8       4.404  -4.850   5.161  0.00  0.00    +0.241 C 
ATOM     69  O   ARG A   8       5.172  -5.430   5.914  0.00  0.00    -0.273 OA
ATOM     70  N   GLY A   9       4.137  -5.271   3.935  0.00  0.00    -0.295 N 
ATOM     71  H   GLY A   9       3.314  -4.889   3.427  0.00  0.00    +0.150 HD
BRANCH  70  72
ATOM     72  CA  GLY A   9       4.977  -6.256   3.296  0.00  0.00    +0.176 C 
BRANCH  72  73
ATOM     73  C   GLY A   9       4.749  -7.689   3.711  0.00  0.00    +0.243 C 
ATOM     74  O   GLY A   9       3.647  -8.081   4.094  0.00  0.00    -0.273 OA
ATOM     75  N   GLU A  10       5.815  -8.470   3.632  0.00  0.00    -0.297 N 
ATOM     76  H   GLU A  10       6.751  -8.036   3.501  0.00  0.00    +0.150 HD
BRANCH  75  77
ATOM     77  CA  GLU A  10       5.714  -9.916   3.723  0.00  0.00    +0.149 C 
BRANCH  77  78
ATOM     78  C   GLU A  10       5.868 -10.444   5.143  0.00  0.00    +0.241 C 
ATOM     79  O   GLU A  10       6.830 -10.125   5.831  0.00  0.00    -0.273 OA
ATOM     80  N   VAL A  11       4.913 -11.264   5.564  0.00  0.00    -0.297 N 
ATOM     81  H   VAL A  11       4.087 -11.430   4.954  0.00  0.00    +0.150 HD
BRANCH  80  82
ATOM     82  CA  VAL A  11       4.984 -11.939   6.853  0.00  0.00    +0.149 C 
BRANCH  82  83
ATOM     83  C   VAL A  11       6.240 -12.785   6.979  0.00  0.00    +0.241 C 
ATOM     84  O   VAL A  11       6.899 -12.769   8.019  0.00  0.00    -0.273 OA
ATOM     85  N   TYR A  12       6.576 -13.523   5.922  0.00  0.00    -0.297 N 
ATOM     86  H   TYR A  12       6.011 -13.464   5.051  0.00  0.00    +0.150 HD
BRANCH  85  87
ATOM     87  CA  TYR A  12       7.732 -14.415   5.977  0.00  0.00    +0.153 C 
BRANCH  87  88
ATOM     88  C   TYR A  12       9.007 -13.678   6.402  0.00  0.00    +0.241 C 
ATOM     89  O   TYR A  12       9.849 -14.242   7.094  0.00  0.00    -0.273 OA
ATOM     90  N   LYS A  13       9.147 -12.420   5.994  0.00  0.00    -0.298 N 
ATOM     91  H   LYS A  13       8.402 -11.977   5.420  0.00  0.00    +0.150 HD
BRANCH  90  92
ATOM     92  CA  LYS A  13      10.337 -11.660   6.346  0.00  0.00    +0.137 C 
BRANCH  92  93
ATOM     93  C   LYS A  13      10.296 -11.305   7.818  0.00  0.00    +0.227 C 
ATOM     94  O   LYS A  13      11.313 -11.334   8.510  0.00  0.00    -0.286 OA
ENDBRANCH  92  93
BRANCH  92  95
ATOM     95  CB  LYS A  13      10.465 -10.395   5.490  0.00  0.00    +0.028 C 
BRANCH  95  96
ATOM     96  CG  LYS A  13      10.947 -10.664   4.075  0.00  0.00    -0.000 C 
BRANCH  96  97
ATOM     97  CD  LYS A  13      11.305  -9.382   3.342  0.00  0.00    -0.024 C 
BRANCH  97  98
ATOM     98  CE  LYS A  13      11.668  -9.677   1.893  0.00  0.00    -0.086 C 
BRANCH  98  99
ATOM     99  NZ  LYS A  13      11.914  -8.438   1.101  0.00  0.00    +0.380 N 
ATOM    100  HZ1 LYS A  13      12.700  -7.907   1.526  0.00  0.00    -0.089 HD
ATOM    101  HZ2 LYS A  13      11.056  -7.851   1.103  0.00  0.00    -0.089 HD
ATOM    102  HZ3 LYS A  13      12.157  -8.696   0.123  0.00  0.00    -0.089 HD
ENDBRANCH  98  99
ENDBRANCH  97  98
ENDBRANCH  96  97
ENDBRANCH  95  96
ENDBRANCH  92  95
ENDBRANCH  90  92
ENDBRANCH  87  88
BRANCH  87 103
ATOM    103  CB  TYR A  12       7.933 -15.170   4.650  0.00  0.00    +0.055 C 
BRANCH 103 104
ATOM    104  CG  TYR A  12       8.840 -14.485   3.642  0.00  0.00    -0.020 A 
ATOM    105  CD2 TYR A  12      10.226 -14.550   3.766  0.00  0.00    -0.001 A 
ATOM    106  CE2 TYR A  12      11.066 -13.930   2.841  0.00  0.00    +0.036 A 
ATOM    107  CZ  TYR A  12      10.517 -13.245   1.766  0.00  0.00    +0.134 A 
ATOM    108  CE1 TYR A  12       9.139 -13.175   1.616  0.00  0.00    +0.036 A 
ATOM    109  CD1 TYR A  12       8.311 -13.795   2.551  0.00  0.00    -0.001 A 
BRANCH 107 110
ATOM    110  OH  TYR A  12      11.347 -12.629   0.846  0.00  0.00    -0.506 OA
ATOM    111  HH  TYR A  12      12.291 -12.778   1.104  0.00  0.00    +0.292 HD
ENDBRANCH 107 110
ENDBRANCH 103 104
ENDBRANCH  87 103
ENDBRANCH  85  87
ENDBRANCH  82  83
BRANCH  82 112
ATOM    112  CB  VAL A  11       3.780 -12.861   7.069  0.00  0.00    +0.027 C 
ATOM    113  CG2 VAL A  11       4.006 -13.737   8.279  0.00  0.00    +0.002 C 
ATOM    114  CG1 VAL A  11       2.510 -12.043   7.221  0.00  0.00    +0.002 C 
ENDBRANCH  82 112
ENDBRANCH  80  82
ENDBRANCH  77  78
BRANCH  77 115
ATOM    115  CB  GLU A  10       6.757 -10.550   2.807  0.00  0.00    +0.041 C 
BRANCH 115 116
ATOM    116  CG  GLU A  10       6.432 -10.385   1.336  0.00  0.00    +0.116 C 
BRANCH 116 117
ATOM    117  CD  GLU A  10       7.621  -9.909   0.532  0.00  0.00    +0.365 C 
ATOM    118  OE2 GLU A  10       8.276  -8.942   0.972  0.00  0.00    -0.246 OA
ATOM    119  OE1 GLU A  10       7.903 -10.501  -0.531  0.00  0.00    -0.246 OA
ENDBRANCH 116 117
ENDBRANCH 115 116
ENDBRANCH  77 115
ENDBRANCH  75  77
ENDBRANCH  72  73
ENDBRANCH  70  72
ENDBRANCH  67  68
BRANCH  67 120
ATOM    120  CB  ARG A   8       3.069  -3.794   6.982  0.00  0.00    +0.033 C 
BRANCH 120 121
ATOM    121  CG  ARG A   8       2.673  -2.502   7.638  0.00  0.00    +0.045 C 
BRANCH 121 122
ATOM    122  CD  ARG A   8       2.314  -2.718   9.098  0.00  0.00    +0.174 C 
BRANCH 122 123
ATOM    123  NE  ARG A   8       1.647  -1.541   9.631  0.00  0.00    -0.265 N 
ATOM    124  CZ  ARG A   8       1.342  -1.373  10.911  0.00  0.00    +0.342 C 
ATOM    125  NH2 ARG A   8       1.649  -2.314  11.803  0.00  0.00    -0.292 N 
ATOM    126 HH21 ARG A   8       1.408  -2.178  12.806  0.00  0.00    +0.255 HD
ATOM    127 HH22 ARG A   8       2.129  -3.184  11.497  0.00  0.00    +0.255 HD
ATOM    128  NH1 ARG A   8       0.731  -0.261  11.301  0.00  0.00    -0.292 N 
ATOM    129 HH11 ARG A   8       0.490  -0.124  12.303  0.00  0.00    +0.255 HD
ATOM    130 HH12 ARG A   8       0.494   0.474  10.604  0.00  0.00    +0.255 HD
ATOM    131  HE  ARG A   8       1.393  -0.783   8.966  0.00  0.00    +0.259 HD
ENDBRANCH 122 123
ENDBRANCH 121 122
ENDBRANCH 120 121
ENDBRANCH  67 120
ENDBRANCH   2  67
TORSDOF 53
REMARK  Name = ../refined-set-2016/2wtv/2wtv_pocket.pdb
REMARK  217 active torsions:
REMARK  status: ('A' for Active; 'I' for Inactive)
REMARK    1  A    between atoms: _1  and  _3
REMARK    2  A    between atoms: _3  and  _4
REMARK    3  A    between atoms: _3  and  _6
REMARK    4  A    between atoms: _6  and  _7
REMARK    5  A    between atoms: _7  and  _8
REMARK    6  A    between atoms: _8  and  _9
REMARK    7  A    between atoms: _19  and  _20
REMARK    8  A    between atoms: _25  and  _27
REMARK    9  A    between atoms: _27  and  _28
REMARK   10  A    between atoms: _27  and  _30
REMARK   11  A    between atoms: _30  and  _31
REMARK   12  A    between atoms: _34  and  _36
REMARK   13  A    between atoms: _36  and  _37
REMARK   14  A    between atoms: _39  and  _41
REMARK   15  A    between atoms: _41  and  _42
REMARK   16  A    between atoms: _41  and  _44
REMARK   17  A    between atoms: _44  and  _45
REMARK   18  A    between atoms: _45  and  _46
REMARK   19  A    between atoms: _46  and  _47
REMARK   20  A    between atoms: _47  and  _48
REMARK   21  A    between atoms: _52  and  _54
REMARK   22  A    between atoms: _54  and  _55
REMARK   23  A    between atoms: _57  and  _59
REMARK   24  A    between atoms: _59  and  _60
REMARK   25  A    between atoms: _59  and  _62
REMARK   26  A    between atoms: _62  and  _63
REMARK   27  A    between atoms: _63  and  _64
REMARK   28  A    between atoms: _64  and  _65
REMARK   29  A    between atoms: _65  and  _66
REMARK   30  A    between atoms: _70  and  _72
REMARK   31  A    between atoms: _72  and  _73
REMARK   32  A    between atoms: _72  and  _75
REMARK   33  A    between atoms: _75  and  _76
REMARK   34  A    between atoms: _82  and  _84
REMARK   35  A    between atoms: _84  and  _85
REMARK   36  A    between atoms: _87  and  _89
REMARK   37  A    between atoms: _89  and  _90
REMARK   38  A    between atoms: _89  and  _92
REMARK   39  A    between atoms: _92  and  _93
REMARK   40  A    between atoms: _98  and  _100
REMARK   41  A    between atoms: _100  and  _101
REMARK   42  A    between atoms: _100  and  _103
REMARK   43  A    between atoms: _106  and  _108
REMARK   44  A    between atoms: _108  and  _109
REMARK   45  A    between atoms: _108  and  _111
REMARK   46  A    between atoms: _111  and  _112
REMARK   47  A    between atoms: _117  and  _118
REMARK   48  A    between atoms: _120  and  _122
REMARK   49  A    between atoms: _122  and  _123
REMARK   50  A    between atoms: _122  and  _125
REMARK   51  A    between atoms: _125  and  _126
REMARK   52  A    between atoms: _129  and  _131
REMARK   53  A    between atoms: _131  and  _132
REMARK   54  A    between atoms: _131  and  _134
REMARK   55  A    between atoms: _134  and  _135
REMARK   56  A    between atoms: _138  and  _140
REMARK   57  A    between atoms: _140  and  _141
REMARK   58  A    between atoms: _140  and  _143
REMARK   59  A    between atoms: _143  and  _144
REMARK   60  A    between atoms: _147  and  _149
REMARK   61  A    between atoms: _149  and  _150
REMARK   62  A    between atoms: _153  and  _155
REMARK   63  A    between atoms: _155  and  _156
REMARK   64  A    between atoms: _155  and  _158
REMARK   65  A    between atoms: _158  and  _159
REMARK   66  A    between atoms: _162  and  _164
REMARK   67  A    between atoms: _164  and  _165
REMARK   68  A    between atoms: _164  and  _167
REMARK   69  A    between atoms: _167  and  _168
REMARK   70  A    between atoms: _168  and  _169
REMARK   71  A    between atoms: _169  and  _170
REMARK   72  A    between atoms: _170  and  _171
REMARK   73  A    between atoms: _175  and  _177
REMARK   74  A    between atoms: _177  and  _178
REMARK   75  A    between atoms: _177  and  _180
REMARK   76  A    between atoms: _183  and  _185
REMARK   77  A    between atoms: _185  and  _186
REMARK   78  A    between atoms: _185  and  _188
REMARK   79  A    between atoms: _188  and  _189
REMARK   80  A    between atoms: _192  and  _194
REMARK   81  A    between atoms: _194  and  _195
REMARK   82  A    between atoms: _194  and  _197
REMARK   83  A    between atoms: _197  and  _198
REMARK   84  A    between atoms: _201  and  _203
REMARK   85  A    between atoms: _203  and  _204
REMARK   86  A    between atoms: _203  and  _206
REMARK   87  A    between atoms: _206  and  _207
REMARK   88  A    between atoms: _207  and  _208
REMARK   89  A    between atoms: _208  and  _209
REMARK   90  A    between atoms: _218  and  _220
REMARK   91  A    between atoms: _220  and  _221
REMARK   92  A    between atoms: _220  and  _223
REMARK   93  A    between atoms: _223  and  _224
REMARK   94  A    between atoms: _227  and  _229
REMARK   95  A    between atoms: _229  and  _230
REMARK   96  A    between atoms: _229  and  _232
REMARK   97  A    between atoms: _232  and  _233
REMARK   98  A    between atoms: _236  and  _238
REMARK   99  A    between atoms: _238  and  _239
REMARK  100  A    between atoms: _238  and  _241
REMARK  101  A    between atoms: _241  and  _242
REMARK  102  A    between atoms: _245  and  _247
REMARK  103  A    between atoms: _247  and  _248
REMARK  104  A    between atoms: _247  and  _250
REMARK  105  A    between atoms: _250  and  _251
REMARK  106  A    between atoms: _251  and  _252
REMARK  107  A    between atoms: _255  and  _257
REMARK  108  A    between atoms: _257  and  _258
REMARK  109  A    between atoms: _257  and  _260
REMARK  110  A    between atoms: _260  and  _261
REMARK  111  A    between atoms: _266  and  _267
REMARK  112  A    between atoms: _269  and  _271
REMARK  113  A    between atoms: _271  and  _272
REMARK  114  A    between atoms: _276  and  _277
REMARK  115  A    between atoms: _282  and  _284
REMARK  116  A    between atoms: _284  and  _285
REMARK  117  A    between atoms: _284  and  _287
REMARK  118  A    between atoms: _287  and  _288
REMARK  119  A    between atoms: _288  and  _289
REMARK  120  A    between atoms: _289  and  _290
REMARK  121  A    between atoms: _299  and  _301
REMARK  122  A    between atoms: _301  and  _302
REMARK  123  A    between atoms: _304  and  _306
REMARK  124  A    between atoms: _306  and  _307
REMARK  125  A    between atoms: _306  and  _309
REMARK  126  A    between atoms: _309  and  _310
REMARK  127  A    between atoms: _310  and  _311
REMARK  128  A    between atoms: _314  and  _316
REMARK  129  A    between atoms: _316  and  _317
REMARK  130  A    between atoms: _316  and  _319
REMARK  131  A    between atoms: _322  and  _324
REMARK  132  A    between atoms: _324  and  _325
REMARK  133  A    between atoms: _324  and  _327
REMARK  134  A    between atoms: _327  and  _328
REMARK  135  A    between atoms: _333  and  _334
REMARK  136  A    between atoms: _336  and  _338
REMARK  137  A    between atoms: _338  and  _339
REMARK  138  A    between atoms: _338  and  _341
REMARK  139  A    between atoms: _341  and  _342
REMARK  140  A    between atoms: _342  and  _343
REMARK  141  A    between atoms: _343  and  _344
REMARK  142  A    between atoms: _344  and  _345
REMARK  143  A    between atoms: _349  and  _351
REMARK  144  A    between atoms: _351  and  _352
REMARK  145  A    between atoms: _351  and  _354
REMARK  146  A    between atoms: _354  and  _355
REMARK  147  A    between atoms: _355  and  _356
REMARK  148  A    between atoms: _356  and  _357
REMARK  149  A    between atoms: _366  and  _368
REMARK  150  A    between atoms: _368  and  _369
REMARK  151  A    between atoms: _368  and  _371
REMARK  152  A    between atoms: _371  and  _372
REMARK  153  A    between atoms: _376  and  _377
REMARK  154  A    between atoms: _382  and  _384
REMARK  155  A    between atoms: _384  and  _385
REMARK  156  A    between atoms: _384  and  _387
REMARK  157  A    between atoms: _387  and  _388
REMARK  158  A    between atoms: _388  and  _389
REMARK  159  A    between atoms: _392  and  _394
REMARK  160  A    between atoms: _394  and  _395
REMARK  161  A    between atoms: _394  and  _397
REMARK  162  A    between atoms: _397  and  _398
REMARK  163  A    between atoms: _403  and  _405
REMARK  164  A    between atoms: _405  and  _406
REMARK  165  A    between atoms: _405  and  _408
REMARK  166  A    between atoms: _408  and  _409
REMARK  167  A    between atoms: _412  and  _414
REMARK  168  A    between atoms: _414  and  _415
REMARK  169  A    between atoms: _414  and  _417
REMARK  170  A    between atoms: _417  and  _418
REMARK  171  A    between atoms: _421  and  _423
REMARK  172  A    between atoms: _423  and  _424
REMARK  173  A    between atoms: _423  and  _426
REMARK  174  A    between atoms: _426  and  _427
REMARK  175  A    between atoms: _430  and  _432
REMARK  176  A    between atoms: _432  and  _433
REMARK  177  A    between atoms: _435  and  _437
REMARK  178  A    between atoms: _437  and  _438
REMARK  179  A    between atoms: _437  and  _440
REMARK  180  A    between atoms: _440  and  _441
REMARK  181  A    between atoms: _441  and  _442
REMARK  182  A    between atoms: _442  and  _443
REMARK  183  A    between atoms: _443  and  _444
REMARK  184  A    between atoms: _448  and  _450
REMARK  185  A    between atoms: _450  and  _451
REMARK  186  A    between atoms: _450  and  _453
REMARK  187  A    between atoms: _453  and  _454
REMARK  188  A    between atoms: _457  and  _459
REMARK  189  A    between atoms: _459  and  _460
REMARK  190  A    between atoms: _463  and  _465
REMARK  191  A    between atoms: _465  and  _466
REMARK  192  A    between atoms: _465  and  _468
REMARK  193  A    between atoms: _468  and  _469
REMARK  194  A    between atoms: _472  and  _474
REMARK  195  A    between atoms: _474  and  _475
REMARK  196  A    between atoms: _474  and  _477
REMARK  197  A    between atoms: _477  and  _478
REMARK  198  A    between atoms: _484  and  _486
REMARK  199  A    between atoms: _486  and  _487
REMARK  200  A    between atoms: _489  and  _491
REMARK  201  A    between atoms: _491  and  _492
REMARK  202  A    between atoms: _491  and  _494
REMARK  203  A    between atoms: _494  and  _495
REMARK  204  A    between atoms: _505  and  _507
REMARK  205  A    between atoms: _507  and  _508
REMARK  206  A    between atoms: _507  and  _510
REMARK  207  A    between atoms: _510  and  _511
REMARK  208  A    between atoms: _513  and  _515
REMARK  209  A    between atoms: _515  and  _516
REMARK  210  A    between atoms: _515  and  _518
REMARK  211  A    between atoms: _521  and  _523
REMARK  212  A    between atoms: _523  and  _524
REMARK  213  A    between atoms: _523  and  _526
REMARK  214  A    between atoms: _526  and  _527
REMARK  215  A    between atoms: _532  and  _534
REMARK  216  A    between atoms: _534  and  _535
REMARK  217  A    between atoms: _539  and  _540
REMARK                            x       y       z     vdW  Elec       q    Type
REMARK                         _______ _______ _______ _____ _____    ______ ____
ROOT
ATOM      1  CA  ARG A   1      -6.751 -21.512   0.581  0.00  0.00    +0.145 C 
ENDROOT
BRANCH   1   2
ATOM      2  C   ARG A   1      -5.329 -21.662   1.107  0.00  0.00    +0.238 C 
ATOM      3  O   ARG A   1      -5.109 -22.198   2.193  0.00  0.00    -0.274 OA
ATOM      4  N   ASP A   2      -4.365 -21.186   0.330  0.00  0.00    -0.298 N 
ATOM      5  H   ASP A   2      -4.618 -20.733  -0.571  0.00  0.00    +0.150 HD
BRANCH   4   6
ATOM      6  CA  ASP A   2      -2.960 -21.281   0.706  0.00  0.00    +0.148 C 
BRANCH   6   7
ATOM      7  C   ASP A   2      -2.614 -20.225   1.755  0.00  0.00    +0.227 C 
ATOM      8  O   ASP A   2      -2.649 -19.029   1.480  0.00  0.00    -0.286 OA
ENDBRANCH   6   7
BRANCH   6   9
ATOM      9  CB  ASP A   2      -2.067 -21.135  -0.531  0.00  0.00    +0.142 C 
BRANCH   9  10
ATOM     10  CG  ASP A   2      -0.593 -21.046  -0.178  0.00  0.00    +0.367 C 
ATOM     11  OD2 ASP A   2      -0.178 -21.680   0.816  0.00  0.00    -0.246 OA
ATOM     12  OD1 ASP A   2       0.150 -20.332  -0.888  0.00  0.00    -0.246 OA
ENDBRANCH   9  10
ENDBRANCH   6   9
ENDBRANCH   4   6
ENDBRANCH   1   2
BRANCH   1  13
ATOM     13  N   ARG A   1      -7.517 -22.733   0.783  0.00  0.00    -0.238 NA
ATOM     14  H   ARG A   1      -8.331 -22.723   1.431  0.00  0.00    +0.142 HD
ENDBRANCH   1  13
BRANCH   1  15
ATOM     15  CB  ARG A   1      -7.446 -20.326   1.250  0.00  0.00    +0.030 C 
BRANCH  15  16
ATOM     16  CG  ARG A   1      -8.253 -19.472   0.286  0.00  0.00    +0.045 C 
BRANCH  16  17
ATOM     17  CD  ARG A   1      -7.318 -18.727  -0.672  0.00  0.00    +0.174 C 
BRANCH  17  18
ATOM     18  NE  ARG A   1      -8.007 -17.681  -1.426  0.00  0.00    -0.265 N 
ATOM     19  HE  ARG A   1      -9.033 -17.778  -1.563  0.00  0.00    +0.259 HD
ATOM     20  CZ  ARG A   1      -7.409 -16.612  -1.950  0.00  0.00    +0.342 C 
ATOM     21  NH2 ARG A   1      -6.103 -16.427  -1.808  0.00  0.00    -0.292 N 
ATOM     22 HH21 ARG A   1      -5.534 -17.121  -1.283  0.00  0.00    +0.255 HD
ATOM     23 HH22 ARG A   1      -5.649 -15.588  -2.222  0.00  0.00    +0.255 HD
ATOM     24  NH1 ARG A   1      -8.124 -15.720  -2.613  0.00  0.00    -0.292 N 
ATOM     25 HH11 ARG A   1      -9.149 -15.854  -2.724  0.00  0.00    +0.255 HD
ATOM     26 HH12 ARG A   1      -7.661 -14.884  -3.024  0.00  0.00    +0.255 HD
ENDBRANCH  17  18
ENDBRANCH  16  17
ENDBRANCH  15  16
ENDBRANCH   1  15
TORSDOF 10
REMARK  Name = ../refined-set-2016/2wtv/2wtv_pocket.pdb
REMARK  217 active torsions:
REMARK  status: ('A' for Active; 'I' for Inactive)
REMARK    1  A    between atoms: _1  and  _3
REMARK    2  A    between atoms: _3  and  _4
REMARK    3  A    between atoms: _3  and  _6
REMARK    4  A    between atoms: _6  and  _7
REMARK    5  A    between atoms: _7  and  _8
REMARK    6  A    between atoms: _8  and  _9
REMARK    7  A    between atoms: _19  and  _20
REMARK    8  A    between atoms: _25  and  _27
REMARK    9  A    between atoms: _27  and  _28
REMARK   10  A    between atoms: _27  and  _30
REMARK   11  A    between atoms: _30  and  _31
REMARK   12  A    between atoms: _34  and  _36
REMARK   13  A    between atoms: _36  and  _37
REMARK   14  A    between atoms: _39  and  _41
REMARK   15  A    between atoms: _41  and  _42
REMARK   16  A    between atoms: _41  and  _44
REMARK   17  A    between atoms: _44  and  _45
REMARK   18  A    between atoms: _45  and  _46
REMARK   19  A    between atoms: _46  and  _47
REMARK   20  A    between atoms: _47  and  _48
REMARK   21  A    between atoms: _52  and  _54
REMARK   22  A    between atoms: _54  and  _55
REMARK   23  A    between atoms: _57  and  _59
REMARK   24  A    between atoms: _59  and  _60
REMARK   25  A    between atoms: _59  and  _62
REMARK   26  A    between atoms: _62  and  _63
REMARK   27  A    between atoms: _63  and  _64
REMARK   28  A    between atoms: _64  and  _65
REMARK   29  A    between atoms: _65  and  _66
REMARK   30  A    between atoms: _70  and  _72
REMARK   31  A    between atoms: _72  and  _73
REMARK   32  A    between atoms: _72  and  _75
REMARK   33  A    between atoms: _75  and  _76
REMARK   34  A    between atoms: _82  and  _84
REMARK   35  A    between atoms: _84  and  _85
REMARK   36  A    between atoms: _87  and  _89
REMARK   37  A    between atoms: _89  and  _90
REMARK   38  A    between atoms: _89  and  _92
REMARK   39  A    between atoms: _92  and  _93
REMARK   40  A    between atoms: _98  and  _100
REMARK   41  A    between atoms: _100  and  _101
REMARK   42  A    between atoms: _100  and  _103
REMARK   43  A    between atoms: _106  and  _108
REMARK   44  A    between atoms: _108  and  _109
REMARK   45  A    between atoms: _108  and  _111
REMARK   46  A    between atoms: _111  and  _112
REMARK   47  A    between atoms: _117  and  _118
REMARK   48  A    between atoms: _120  and  _122
REMARK   49  A    between atoms: _122  and  _123
REMARK   50  A    between atoms: _122  and  _125
REMARK   51  A    between atoms: _125  and  _126
REMARK   52  A    between atoms: _129  and  _131
REMARK   53  A    between atoms: _131  and  _132
REMARK   54  A    between atoms: _131  and  _134
REMARK   55  A    between atoms: _134  and  _135
REMARK   56  A    between atoms: _138  and  _140
REMARK   57  A    between atoms: _140  and  _141
REMARK   58  A    between atoms: _140  and  _143
REMARK   59  A    between atoms: _143  and  _144
REMARK   60  A    between atoms: _147  and  _149
REMARK   61  A    between atoms: _149  and  _150
REMARK   62  A    between atoms: _153  and  _155
REMARK   63  A    between atoms: _155  and  _156
REMARK   64  A    between atoms: _155  and  _158
REMARK   65  A    between atoms: _158  and  _159
REMARK   66  A    between atoms: _162  and  _164
REMARK   67  A    between atoms: _164  and  _165
REMARK   68  A    between atoms: _164  and  _167
REMARK   69  A    between atoms: _167  and  _168
REMARK   70  A    between atoms: _168  and  _169
REMARK   71  A    between atoms: _169  and  _170
REMARK   72  A    between atoms: _170  and  _171
REMARK   73  A    between atoms: _175  and  _177
REMARK   74  A    between atoms: _177  and  _178
REMARK   75  A    between atoms: _177  and  _180
REMARK   76  A    between atoms: _183  and  _185
REMARK   77  A    between atoms: _185  and  _186
REMARK   78  A    between atoms: _185  and  _188
REMARK   79  A    between atoms: _188  and  _189
REMARK   80  A    between atoms: _192  and  _194
REMARK   81  A    between atoms: _194  and  _195
REMARK   82  A    between atoms: _194  and  _197
REMARK   83  A    between atoms: _197  and  _198
REMARK   84  A    between atoms: _201  and  _203
REMARK   85  A    between atoms: _203  and  _204
REMARK   86  A    between atoms: _203  and  _206
REMARK   87  A    between atoms: _206  and  _207
REMARK   88  A    between atoms: _207  and  _208
REMARK   89  A    between atoms: _208  and  _209
REMARK   90  A    between atoms: _218  and  _220
REMARK   91  A    between atoms: _220  and  _221
REMARK   92  A    between atoms: _220  and  _223
REMARK   93  A    between atoms: _223  and  _224
REMARK   94  A    between atoms: _227  and  _229
REMARK   95  A    between atoms: _229  and  _230
REMARK   96  A    between atoms: _229  and  _232
REMARK   97  A    between atoms: _232  and  _233
REMARK   98  A    between atoms: _236  and  _238
REMARK   99  A    between atoms: _238  and  _239
REMARK  100  A    between atoms: _238  and  _241
REMARK  101  A    between atoms: _241  and  _242
REMARK  102  A    between atoms: _245  and  _247
REMARK  103  A    between atoms: _247  and  _248
REMARK  104  A    between atoms: _247  and  _250
REMARK  105  A    between atoms: _250  and  _251
REMARK  106  A    between atoms: _251  and  _252
REMARK  107  A    between atoms: _255  and  _257
REMARK  108  A    between atoms: _257  and  _258
REMARK  109  A    between atoms: _257  and  _260
REMARK  110  A    between atoms: _260  and  _261
REMARK  111  A    between atoms: _266  and  _267
REMARK  112  A    between atoms: _269  and  _271
REMARK  113  A    between atoms: _271  and  _272
REMARK  114  A    between atoms: _276  and  _277
REMARK  115  A    between atoms: _282  and  _284
REMARK  116  A    between atoms: _284  and  _285
REMARK  117  A    between atoms: _284  and  _287
REMARK  118  A    between atoms: _287  and  _288
REMARK  119  A    between atoms: _288  and  _289
REMARK  120  A    between atoms: _289  and  _290
REMARK  121  A    between atoms: _299  and  _301
REMARK  122  A    between atoms: _301  and  _302
REMARK  123  A    between atoms: _304  and  _306
REMARK  124  A    between atoms: _306  and  _307
REMARK  125  A    between atoms: _306  and  _309
REMARK  126  A    between atoms: _309  and  _310
REMARK  127  A    between atoms: _310  and  _311
REMARK  128  A    between atoms: _314  and  _316
REMARK  129  A    between atoms: _316  and  _317
REMARK  130  A    between atoms: _316  and  _319
REMARK  131  A    between atoms: _322  and  _324
REMARK  132  A    between atoms: _324  and  _325
REMARK  133  A    between atoms: _324  and  _327
REMARK  134  A    between atoms: _327  and  _328
REMARK  135  A    between atoms: _333  and  _334
REMARK  136  A    between atoms: _336  and  _338
REMARK  137  A    between atoms: _338  and  _339
REMARK  138  A    between atoms: _338  and  _341
REMARK  139  A    between atoms: _341  and  _342
REMARK  140  A    between atoms: _342  and  _343
REMARK  141  A    between atoms: _343  and  _344
REMARK  142  A    between atoms: _344  and  _345
REMARK  143  A    between atoms: _349  and  _351
REMARK  144  A    between atoms: _351  and  _352
REMARK  145  A    between atoms: _351  and  _354
REMARK  146  A    between atoms: _354  and  _355
REMARK  147  A    between atoms: _355  and  _356
REMARK  148  A    between atoms: _356  and  _357
REMARK  149  A    between atoms: _366  and  _368
REMARK  150  A    between atoms: _368  and  _369
REMARK  151  A    between atoms: _368  and  _371
REMARK  152  A    between atoms: _371  and  _372
REMARK  153  A    between atoms: _376  and  _377
REMARK  154  A    between atoms: _382  and  _384
REMARK  155  A    between atoms: _384  and  _385
REMARK  156  A    between atoms: _384  and  _387
REMARK  157  A    between atoms: _387  and  _388
REMARK  158  A    between atoms: _388  and  _389
REMARK  159  A    between atoms: _392  and  _394
REMARK  160  A    between atoms: _394  and  _395
REMARK  161  A    between atoms: _394  and  _397
REMARK  162  A    between atoms: _397  and  _398
REMARK  163  A    between atoms: _403  and  _405
REMARK  164  A    between atoms: _405  and  _406
REMARK  165  A    between atoms: _405  and  _408
REMARK  166  A    between atoms: _408  and  _409
REMARK  167  A    between atoms: _412  and  _414
REMARK  168  A    between atoms: _414  and  _415
REMARK  169  A    between atoms: _414  and  _417
REMARK  170  A    between atoms: _417  and  _418
REMARK  171  A    between atoms: _421  and  _423
REMARK  172  A    between atoms: _423  and  _424
REMARK  173  A    between atoms: _423  and  _426
REMARK  174  A    between atoms: _426  and  _427
REMARK  175  A    between atoms: _430  and  _432
REMARK  176  A    between atoms: _432  and  _433
REMARK  177  A    between atoms: _435  and  _437
REMARK  178  A    between atoms: _437  and  _438
REMARK  179  A    between atoms: _437  and  _440
REMARK  180  A    between atoms: _440  and  _441
REMARK  181  A    between atoms: _441  and  _442
REMARK  182  A    between atoms: _442  and  _443
REMARK  183  A    between atoms: _443  and  _444
REMARK  184  A    between atoms: _448  and  _450
REMARK  185  A    between atoms: _450  and  _451
REMARK  186  A    between atoms: _450  and  _453
REMARK  187  A    between atoms: _453  and  _454
REMARK  188  A    between atoms: _457  and  _459
REMARK  189  A    between atoms: _459  and  _460
REMARK  190  A    between atoms: _463  and  _465
REMARK  191  A    between atoms: _465  and  _466
REMARK  192  A    between atoms: _465  and  _468
REMARK  193  A    between atoms: _468  and  _469
REMARK  194  A    between atoms: _472  and  _474
REMARK  195  A    between atoms: _474  and  _475
REMARK  196  A    between atoms: _474  and  _477
REMARK  197  A    between atoms: _477  and  _478
REMARK  198  A    between atoms: _484  and  _486
REMARK  199  A    between atoms: _486  and  _487
REMARK  200  A    between atoms: _489  and  _491
REMARK  201  A    between atoms: _491  and  _492
REMARK  202  A    between atoms: _491  and  _494
REMARK  203  A    between atoms: _494  and  _495
REMARK  204  A    between atoms: _505  and  _507
REMARK  205  A    between atoms: _507  and  _508
REMARK  206  A    between atoms: _507  and  _510
REMARK  207  A    between atoms: _510  and  _511
REMARK  208  A    between atoms: _513  and  _515
REMARK  209  A    between atoms: _515  and  _516
REMARK  210  A    between atoms: _515  and  _518
REMARK  211  A    between atoms: _521  and  _523
REMARK  212  A    between atoms: _523  and  _524
REMARK  213  A    between atoms: _523  and  _526
REMARK  214  A    between atoms: _526  and  _527
REMARK  215  A    between atoms: _532  and  _534
REMARK  216  A    between atoms: _534  and  _535
REMARK  217  A    between atoms: _539  and  _540
REMARK                            x       y       z     vdW  Elec       q    Type
REMARK                         _______ _______ _______ _____ _____    ______ ____
ROOT
ATOM      1  C   ASN A   3       0.731 -15.228   1.787  0.00  0.00    +0.241 C 
ATOM      2  N   LEU A   4       1.358 -14.660   2.814  0.00  0.00    -0.297 N 
ATOM      3  H   LEU A   4       2.375 -14.835   2.942  0.00  0.00    +0.150 HD
ATOM      4  O   ASN A   3      -0.458 -15.032   1.518  0.00  0.00    -0.273 OA
ENDROOT
BRANCH   2   5
ATOM      5  CA  LEU A   4       0.665 -13.803   3.762  0.00  0.00    +0.149 C 
BRANCH   5   6
ATOM      6  C   LEU A   4       1.322 -12.438   3.792  0.00  0.00    +0.241 C 
ATOM      7  O   LEU A   4       2.531 -12.319   4.002  0.00  0.00    -0.273 OA
ATOM      8  N   LEU A   5       0.521 -11.404   3.577  0.00  0.00    -0.297 N 
ATOM      9  H   LEU A   5      -0.487 -11.571   3.381  0.00  0.00    +0.150 HD
BRANCH   8  10
ATOM     10  CA  LEU A   5       1.025 -10.042   3.610  0.00  0.00    +0.149 C 
BRANCH  10  11
ATOM     11  C   LEU A   5       0.458  -9.307   4.820  0.00  0.00    +0.241 C 
ATOM     12  O   LEU A   5      -0.424  -9.822   5.520  0.00  0.00    -0.273 OA
ATOM     13  N   LEU A   6       0.963  -8.105   5.067  0.00  0.00    -0.297 N 
ATOM     14  H   LEU A   6       1.686  -7.710   4.432  0.00  0.00    +0.150 HD
BRANCH  13  15
ATOM     15  CA  LEU A   6       0.515  -7.335   6.217  0.00  0.00    +0.149 C 
BRANCH  15  16
ATOM     16  C   LEU A   6      -0.078  -5.998   5.797  0.00  0.00    +0.241 C 
ATOM     17  N   GLY A   7      -1.292  -5.721   6.274  0.00  0.00    -0.296 N 
ATOM     18  H   GLY A   7      -1.774  -6.436   6.856  0.00  0.00    +0.150 HD
ATOM     19  O   LEU A   6       0.561  -5.233   5.074  0.00  0.00    -0.273 OA
BRANCH  17  20
ATOM     20  CA  GLY A   7      -1.969  -4.460   6.014  0.00  0.00    +0.163 C 
BRANCH  20  21
ATOM     21  C   GLY A   7      -1.469  -3.325   6.894  0.00  0.00    +0.229 C 
ATOM     22  O   GLY A   7      -0.558  -3.496   7.715  0.00  0.00    -0.286 OA
ENDBRANCH  20  21
ENDBRANCH  17  20
ENDBRANCH  15  16
BRANCH  15  23
ATOM     23  CB  LEU A   6       1.673  -7.117   7.188  0.00  0.00    +0.029 C 
BRANCH  23  24
ATOM     24  CG  LEU A   6       2.140  -8.358   7.954  0.00  0.00    +0.002 C 
ATOM     25  CD2 LEU A   6       1.122  -8.751   9.025  0.00  0.00    +0.000 C 
ATOM     26  CD1 LEU A   6       3.514  -8.130   8.567  0.00  0.00    +0.000 C 
ENDBRANCH  23  24
ENDBRANCH  15  23
ENDBRANCH  13  15
ENDBRANCH  10  11
BRANCH  10  27
ATOM     27  CB  LEU A   5       0.677  -9.319   2.302  0.00  0.00    +0.029 C 
BRANCH  27  28
ATOM     28  CG  LEU A   5       1.242  -9.962   1.023  0.00  0.00    +0.002 C 
ATOM     29  CD2 LEU A   5       2.722 -10.212   1.162  0.00  0.00    +0.000 C 
ATOM     30  CD1 LEU A   5       0.983  -9.089  -0.202  0.00  0.00    +0.000 C 
ENDBRANCH  27  28
ENDBRANCH  10  27
ENDBRANCH   8  10
ENDBRANCH   5   6
BRANCH   5  31
ATOM     31  CB  LEU A   4       0.669 -14.424   5.171  0.00  0.00    +0.029 C 
BRANCH  31  32
ATOM     32  CG  LEU A   4      -0.078 -15.746   5.354  0.00  0.00    +0.002 C 
ATOM     33  CD2 LEU A   4      -0.111 -16.153   6.831  0.00  0.00    +0.000 C 
ATOM     34  CD1 LEU A   4      -1.494 -15.657   4.791  0.00  0.00    +0.000 C 
ENDBRANCH  31  32
ENDBRANCH   5  31
ENDBRANCH   2   5
BRANCH   1  35
ATOM     35  CA  ASN A   3       1.564 -16.173   0.939  0.00  0.00    +0.158 C 
BRANCH  35  37
ATOM     36  C   GLU A   2       3.971 -16.272   1.216  0.00  0.00    +0.241 C 
ATOM     37  N   ASN A   3       2.762 -16.648   1.613  0.00  0.00    -0.297 N 
ATOM     38  H   ASN A   3       2.669 -17.295   2.422  0.00  0.00    +0.150 HD
ATOM     39  O   GLU A   2       4.156 -15.518   0.262  0.00  0.00    -0.273 OA
BRANCH  36  40
ATOM     40  CA  GLU A   2       5.147 -16.812   2.025  0.00  0.00    +0.149 C 
BRANCH  40  43
ATOM     41  C   PRO A   1       4.078 -16.843   4.203  0.00  0.00    +0.239 C 
ATOM     42  O   PRO A   1       3.782 -15.651   4.108  0.00  0.00    -0.274 OA
ATOM     43  N   GLU A   2       4.707 -17.509   3.238  0.00  0.00    -0.297 N 
ATOM     44  H   GLU A   2       4.887 -18.528   3.344  0.00  0.00    +0.150 HD
BRANCH  41  49
ATOM     45  N   PRO A   1       3.201 -18.954   5.251  0.00  0.00    -0.210 NA
ATOM     46  CD  PRO A   1       3.964 -19.950   6.016  0.00  0.00    +0.089 C 
ATOM     47  CG  PRO A   1       4.627 -19.114   7.063  0.00  0.00    +0.021 C 
ATOM     48  CB  PRO A   1       4.920 -17.828   6.373  0.00  0.00    +0.028 C 
ATOM     49  CA  PRO A   1       3.695 -17.598   5.482  0.00  0.00    +0.149 C 
ENDBRANCH  41  49
ENDBRANCH  40  43
BRANCH  40  50
ATOM     50  CB  GLU A   2       6.057 -17.687   1.146  0.00  0.00    +0.041 C 
BRANCH  50  51
ATOM     51  CG  GLU A   2       5.655 -19.140   1.056  0.00  0.00    +0.116 C 
BRANCH  51  52
ATOM     52  CD  GLU A   2       6.203 -19.976   2.210  0.00  0.00    +0.365 C 
ATOM     53  OE2 GLU A   2       6.694 -19.395   3.201  0.00  0.00    -0.246 OA
ATOM     54  OE1 GLU A   2       6.153 -21.221   2.120  0.00  0.00    -0.246 OA
ENDBRANCH  51  52
ENDBRANCH  50  51
ENDBRANCH  40  50
ENDBRANCH  36  40
ENDBRANCH  35  37
BRANCH  35  55
ATOM     55  CB  ASN A   3       0.691 -17.344   0.506  0.00  0.00    +0.114 C 
BRANCH  55  56
ATOM     56  CG  ASN A   3       0.219 -17.192  -0.906  0.00  0.00    +0.222 C 
ATOM     57  ND2 ASN A   3      -1.080 -16.926  -1.082  0.00  0.00    -0.329 N 
ATOM     58 HD21 ASN A   3      -1.713 -16.859  -0.260  0.00  0.00    +0.145 HD
ATOM     59 HD22 ASN A   3      -1.457 -16.787  -2.041  0.00  0.00    +0.145 HD
ATOM     60  OD1 ASN A   3       1.023 -17.285  -1.843  0.00  0.00    -0.275 OA
ENDBRANCH  55  56
ENDBRANCH  35  55
ENDBRANCH   1  35
TORSDOF 24
REMARK  Name = ../refined-set-2016/2wtv/2wtv_pocket.pdb
REMARK  217 active torsions:
REMARK  status: ('A' for Active; 'I' for Inactive)
REMARK    1  A    between atoms: _1  and  _3
REMARK    2  A    between atoms: _3  and  _4
REMARK    3  A    between atoms: _3  and  _6
REMARK    4  A    between atoms: _6  and  _7
REMARK    5  A    between atoms: _7  and  _8
REMARK    6  A    between atoms: _8  and  _9
REMARK    7  A    between atoms: _19  and  _20
REMARK    8  A    between atoms: _25  and  _27
REMARK    9  A    between atoms: _27  and  _28
REMARK   10  A    between atoms: _27  and  _30
REMARK   11  A    between atoms: _30  and  _31
REMARK   12  A    between atoms: _34  and  _36
REMARK   13  A    between atoms: _36  and  _37
REMARK   14  A    between atoms: _39  and  _41
REMARK   15  A    between atoms: _41  and  _42
REMARK   16  A    between atoms: _41  and  _44
REMARK   17  A    between atoms: _44  and  _45
REMARK   18  A    between atoms: _45  and  _46
REMARK   19  A    between atoms: _46  and  _47
REMARK   20  A    between atoms: _47  and  _48
REMARK   21  A    between atoms: _52  and  _54
REMARK   22  A    between atoms: _54  and  _55
REMARK   23  A    between atoms: _57  and  _59
REMARK   24  A    between atoms: _59  and  _60
REMARK   25  A    between atoms: _59  and  _62
REMARK   26  A    between atoms: _62  and  _63
REMARK   27  A    between atoms: _63  and  _64
REMARK   28  A    between atoms: _64  and  _65
REMARK   29  A    between atoms: _65  and  _66
REMARK   30  A    between atoms: _70  and  _72
REMARK   31  A    between atoms: _72  and  _73
REMARK   32  A    between atoms: _72  and  _75
REMARK   33  A    between atoms: _75  and  _76
REMARK   34  A    between atoms: _82  and  _84
REMARK   35  A    between atoms: _84  and  _85
REMARK   36  A    between atoms: _87  and  _89
REMARK   37  A    between atoms: _89  and  _90
REMARK   38  A    between atoms: _89  and  _92
REMARK   39  A    between atoms: _92  and  _93
REMARK   40  A    between atoms: _98  and  _100
REMARK   41  A    between atoms: _100  and  _101
REMARK   42  A    between atoms: _100  and  _103
REMARK   43  A    between atoms: _106  and  _108
REMARK   44  A    between atoms: _108  and  _109
REMARK   45  A    between atoms: _108  and  _111
REMARK   46  A    between atoms: _111  and  _112
REMARK   47  A    between atoms: _117  and  _118
REMARK   48  A    between atoms: _120  and  _122
REMARK   49  A    between atoms: _122  and  _123
REMARK   50  A    between atoms: _122  and  _125
REMARK   51  A    between atoms: _125  and  _126
REMARK   52  A    between atoms: _129  and  _131
REMARK   53  A    between atoms: _131  and  _132
REMARK   54  A    between atoms: _131  and  _134
REMARK   55  A    between atoms: _134  and  _135
REMARK   56  A    between atoms: _138  and  _140
REMARK   57  A    between atoms: _140  and  _141
REMARK   58  A    between atoms: _140  and  _143
REMARK   59  A    between atoms: _143  and  _144
REMARK   60  A    between atoms: _147  and  _149
REMARK   61  A    between atoms: _149  and  _150
REMARK   62  A    between atoms: _153  and  _155
REMARK   63  A    between atoms: _155  and  _156
REMARK   64  A    between atoms: _155  and  _158
REMARK   65  A    between atoms: _158  and  _159
REMARK   66  A    between atoms: _162  and  _164
REMARK   67  A    between atoms: _164  and  _165
REMARK   68  A    between atoms: _164  and  _167
REMARK   69  A    between atoms: _167  and  _168
REMARK   70  A    between atoms: _168  and  _169
REMARK   71  A    between atoms: _169  and  _170
REMARK   72  A    between atoms: _170  and  _171
REMARK   73  A    between atoms: _175  and  _177
REMARK   74  A    between atoms: _177  and  _178
REMARK   75  A    between atoms: _177  and  _180
REMARK   76  A    between atoms: _183  and  _185
REMARK   77  A    between atoms: _185  and  _186
REMARK   78  A    between atoms: _185  and  _188
REMARK   79  A    between atoms: _188  and  _189
REMARK   80  A    between atoms: _192  and  _194
REMARK   81  A    between atoms: _194  and  _195
REMARK   82  A    between atoms: _194  and  _197
REMARK   83  A    between atoms: _197  and  _198
REMARK   84  A    between atoms: _201  and  _203
REMARK   85  A    between atoms: _203  and  _204
REMARK   86  A    between atoms: _203  and  _206
REMARK   87  A    between atoms: _206  and  _207
REMARK   88  A    between atoms: _207  and  _208
REMARK   89  A    between atoms: _208  and  _209
REMARK   90  A    between atoms: _218  and  _220
REMARK   91  A    between atoms: _220  and  _221
REMARK   92  A    between atoms: _220  and  _223
REMARK   93  A    between atoms: _223  and  _224
REMARK   94  A    between atoms: _227  and  _229
REMARK   95  A    between atoms: _229  and  _230
REMARK   96  A    between atoms: _229  and  _232
REMARK   97  A    between atoms: _232  and  _233
REMARK   98  A    between atoms: _236  and  _238
REMARK   99  A    between atoms: _238  and  _239
REMARK  100  A    between atoms: _238  and  _241
REMARK  101  A    between atoms: _241  and  _242
REMARK  102  A    between atoms: _245  and  _247
REMARK  103  A    between atoms: _247  and  _248
REMARK  104  A    between atoms: _247  and  _250
REMARK  105  A    between atoms: _250  and  _251
REMARK  106  A    between atoms: _251  and  _252
REMARK  107  A    between atoms: _255  and  _257
REMARK  108  A    between atoms: _257  and  _258
REMARK  109  A    between atoms: _257  and  _260
REMARK  110  A    between atoms: _260  and  _261
REMARK  111  A    between atoms: _266  and  _267
REMARK  112  A    between atoms: _269  and  _271
REMARK  113  A    between atoms: _271  and  _272
REMARK  114  A    between atoms: _276  and  _277
REMARK  115  A    between atoms: _282  and  _284
REMARK  116  A    between atoms: _284  and  _285
REMARK  117  A    between atoms: _284  and  _287
REMARK  118  A    between atoms: _287  and  _288
REMARK  119  A    between atoms: _288  and  _289
REMARK  120  A    between atoms: _289  and  _290
REMARK  121  A    between atoms: _299  and  _301
REMARK  122  A    between atoms: _301  and  _302
REMARK  123  A    between atoms: _304  and  _306
REMARK  124  A    between atoms: _306  and  _307
REMARK  125  A    between atoms: _306  and  _309
REMARK  126  A    between atoms: _309  and  _310
REMARK  127  A    between atoms: _310  and  _311
REMARK  128  A    between atoms: _314  and  _316
REMARK  129  A    between atoms: _316  and  _317
REMARK  130  A    between atoms: _316  and  _319
REMARK  131  A    between atoms: _322  and  _324
REMARK  132  A    between atoms: _324  and  _325
REMARK  133  A    between atoms: _324  and  _327
REMARK  134  A    between atoms: _327  and  _328
REMARK  135  A    between atoms: _333  and  _334
REMARK  136  A    between atoms: _336  and  _338
REMARK  137  A    between atoms: _338  and  _339
REMARK  138  A    between atoms: _338  and  _341
REMARK  139  A    between atoms: _341  and  _342
REMARK  140  A    between atoms: _342  and  _343
REMARK  141  A    between atoms: _343  and  _344
REMARK  142  A    between atoms: _344  and  _345
REMARK  143  A    between atoms: _349  and  _351
REMARK  144  A    between atoms: _351  and  _352
REMARK  145  A    between atoms: _351  and  _354
REMARK  146  A    between atoms: _354  and  _355
REMARK  147  A    between atoms: _355  and  _356
REMARK  148  A    between atoms: _356  and  _357
REMARK  149  A    between atoms: _366  and  _368
REMARK  150  A    between atoms: _368  and  _369
REMARK  151  A    between atoms: _368  and  _371
REMARK  152  A    between atoms: _371  and  _372
REMARK  153  A    between atoms: _376  and  _377
REMARK  154  A    between atoms: _382  and  _384
REMARK  155  A    between atoms: _384  and  _385
REMARK  156  A    between atoms: _384  and  _387
REMARK  157  A    between atoms: _387  and  _388
REMARK  158  A    between atoms: _388  and  _389
REMARK  159  A    between atoms: _392  and  _394
REMARK  160  A    between atoms: _394  and  _395
REMARK  161  A    between atoms: _394  and  _397
REMARK  162  A    between atoms: _397  and  _398
REMARK  163  A    between atoms: _403  and  _405
REMARK  164  A    between atoms: _405  and  _406
REMARK  165  A    between atoms: _405  and  _408
REMARK  166  A    between atoms: _408  and  _409
REMARK  167  A    between atoms: _412  and  _414
REMARK  168  A    between atoms: _414  and  _415
REMARK  169  A    between atoms: _414  and  _417
REMARK  170  A    between atoms: _417  and  _418
REMARK  171  A    between atoms: _421  and  _423
REMARK  172  A    between atoms: _423  and  _424
REMARK  173  A    between atoms: _423  and  _426
REMARK  174  A    between atoms: _426  and  _427
REMARK  175  A    between atoms: _430  and  _432
REMARK  176  A    between atoms: _432  and  _433
REMARK  177  A    between atoms: _435  and  _437
REMARK  178  A    between atoms: _437  and  _438
REMARK  179  A    between atoms: _437  and  _440
REMARK  180  A    between atoms: _440  and  _441
REMARK  181  A    between atoms: _441  and  _442
REMARK  182  A    between atoms: _442  and  _443
REMARK  183  A    between atoms: _443  and  _444
REMARK  184  A    between atoms: _448  and  _450
REMARK  185  A    between atoms: _450  and  _451
REMARK  186  A    between atoms: _450  and  _453
REMARK  187  A    between atoms: _453  and  _454
REMARK  188  A    between atoms: _457  and  _459
REMARK  189  A    between atoms: _459  and  _460
REMARK  190  A    between atoms: _463  and  _465
REMARK  191  A    between atoms: _465  and  _466
REMARK  192  A    between atoms: _465  and  _468
REMARK  193  A    between atoms: _468  and  _469
REMARK  194  A    between atoms: _472  and  _474
REMARK  195  A    between atoms: _474  and  _475
REMARK  196  A    between atoms: _474  and  _477
REMARK  197  A    between atoms: _477  and  _478
REMARK  198  A    between atoms: _484  and  _486
REMARK  199  A    between atoms: _486  and  _487
REMARK  200  A    between atoms: _489  and  _491
REMARK  201  A    between atoms: _491  and  _492
REMARK  202  A    between atoms: _491  and  _494
REMARK  203  A    between atoms: _494  and  _495
REMARK  204  A    between atoms: _505  and  _507
REMARK  205  A    between atoms: _507  and  _508
REMARK  206  A    between atoms: _507  and  _510
REMARK  207  A    between atoms: _510  and  _511
REMARK  208  A    between atoms: _513  and  _515
REMARK  209  A    between atoms: _515  and  _516
REMARK  210  A    between atoms: _515  and  _518
REMARK  211  A    between atoms: _521  and  _523
REMARK  212  A    between atoms: _523  and  _524
REMARK  213  A    between atoms: _523  and  _526
REMARK  214  A    between atoms: _526  and  _527
REMARK  215  A    between atoms: _532  and  _534
REMARK  216  A    between atoms: _534  and  _535
REMARK  217  A    between atoms: _539  and  _540
REMARK                            x       y       z     vdW  Elec       q    Type
REMARK                         _______ _______ _______ _____ _____    ______ ____
ROOT
ATOM      1  C   GLY A   6       1.285 -18.533  -6.346  0.00  0.00    +0.243 C 
ATOM      2  O   GLY A   6       2.515 -18.566  -6.244  0.00  0.00    -0.273 OA
ATOM      3  N   TRP A   7       0.624 -19.176  -7.304  0.00  0.00    -0.297 N 
ATOM      4  H   TRP A   7      -0.414 -19.111  -7.331  0.00  0.00    +0.150 HD
ENDROOT
BRANCH   3   5
ATOM      5  CA  TRP A   7       1.309 -19.970  -8.318  0.00  0.00    +0.153 C 
BRANCH   5   6
ATOM      6  C   TRP A   7       2.072 -19.101  -9.297  0.00  0.00    +0.241 C 
ATOM      7  N   SER A   8       1.741 -17.815  -9.347  0.00  0.00    -0.295 N 
ATOM      8  H   SER A   8       1.039 -17.432  -8.682  0.00  0.00    +0.150 HD
ATOM      9  O   TRP A   7       2.943 -19.593 -10.019  0.00  0.00    -0.273 OA
BRANCH   7  10
ATOM     10  CA  SER A   8       2.363 -16.941 -10.334  0.00  0.00    +0.178 C 
BRANCH  10  11
ATOM     11  C   SER A   8       3.663 -16.319  -9.824  0.00  0.00    +0.243 C 
ATOM     12  N   VAL A   9       4.009 -16.594  -8.571  0.00  0.00    -0.297 N 
ATOM     13  H   VAL A   9       3.406 -17.221  -8.001  0.00  0.00    +0.150 HD
ATOM     14  O   SER A   8       4.349 -15.616 -10.562  0.00  0.00    -0.273 OA
BRANCH  12  15
ATOM     15  CA  VAL A   9       5.220 -16.032  -7.979  0.00  0.00    +0.149 C 
BRANCH  15  16
ATOM     16  C   VAL A   9       6.185 -17.134  -7.536  0.00  0.00    +0.241 C 
ATOM     17  O   VAL A   9       5.766 -18.244  -7.228  0.00  0.00    -0.273 OA
ATOM     18  N   HIS A  10       7.481 -16.843  -7.529  0.00  0.00    -0.297 N 
ATOM     19  H   HIS A  10       7.803 -15.916  -7.874  0.00  0.00    +0.150 HD
BRANCH  18  20
ATOM     20  CA  HIS A  10       8.457 -17.814  -7.041  0.00  0.00    +0.155 C 
BRANCH  20  21
ATOM     21  C   HIS A  10       8.603 -17.740  -5.525  0.00  0.00    +0.241 C 
ATOM     22  N   ALA A  11       8.896 -18.884  -4.916  0.00  0.00    -0.297 N 
ATOM     23  H   ALA A  11       8.981 -19.749  -5.487  0.00  0.00    +0.150 HD
ATOM     24  O   HIS A  10       8.456 -16.673  -4.926  0.00  0.00    -0.273 OA
BRANCH  22  25
ATOM     25  CA  ALA A  11       9.102 -18.969  -3.482  0.00  0.00    +0.149 C 
ATOM     26  CB  ALA A  11       9.355 -20.413  -3.079  0.00  0.00    +0.031 C 
BRANCH  25  27
ATOM     27  C   ALA A  11      10.306 -18.103  -3.135  0.00  0.00    +0.244 C 
ATOM     28  N   PRO A  12      10.268 -17.428  -1.980  0.00  0.00    -0.273 N 
ATOM     29  CD  PRO A  12       9.167 -17.319  -1.010  0.00  0.00    +0.094 C 
ATOM     30  CG  PRO A  12       9.555 -16.115  -0.198  0.00  0.00    +0.024 C 
ATOM     31  CB  PRO A  12      11.049 -16.079  -0.218  0.00  0.00    +0.030 C 
ATOM     32  CA  PRO A  12      11.431 -16.614  -1.601  0.00  0.00    +0.140 C 
ATOM     33  O   ALA A  11      11.256 -18.026  -3.907  0.00  0.00    -0.273 OA
BRANCH  32  34
ATOM     34  C   PRO A  12      12.711 -17.455  -1.525  0.00  0.00    +0.227 C 
ATOM     35  O   PRO A  12      12.701 -18.565  -0.981  0.00  0.00    -0.286 OA
ENDBRANCH  32  34
ENDBRANCH  25  27
ENDBRANCH  22  25
ENDBRANCH  20  21
BRANCH  20  36
ATOM     36  CB  HIS A  10       9.826 -17.625  -7.702  0.00  0.00    +0.076 C 
BRANCH  36  37
ATOM     37  CG  HIS A  10       9.999 -18.396  -8.975  0.00  0.00    +0.082 A 
ATOM     38  ND1 HIS A  10       9.957 -19.773  -9.023  0.00  0.00    -0.227 NA
ATOM     39  CE1 HIS A  10      10.142 -20.174 -10.268  0.00  0.00    +0.199 A 
ATOM     40  NE2 HIS A  10      10.311 -19.106 -11.029  0.00  0.00    -0.221 NA
ATOM     41  CD2 HIS A  10      10.231 -17.982 -10.244  0.00  0.00    +0.115 A 
ENDBRANCH  36  37
ENDBRANCH  20  36
ENDBRANCH  18  20
ENDBRANCH  15  16
BRANCH  15  42
ATOM     42  CB  VAL A   9       4.874 -15.125  -6.777  0.00  0.00    +0.027 C 
ATOM     43  CG2 VAL A   9       6.122 -14.465  -6.225  0.00  0.00    +0.002 C 
ATOM     44  CG1 VAL A   9       3.863 -14.067  -7.191  0.00  0.00    +0.002 C 
ENDBRANCH  15  42
ENDBRANCH  12  15
ENDBRANCH  10  11
BRANCH  10  45
ATOM     45  CB  SER A   8       1.387 -15.861 -10.811  0.00  0.00    +0.166 C 
BRANCH  45  46
ATOM     46  OG  SER A   8       1.169 -14.888  -9.808  0.00  0.00    -0.380 OA
ATOM     47  H   SER A   8       0.790 -15.324  -9.004  0.00  0.00    +0.211 HD
ENDBRANCH  45  46
ENDBRANCH  10  45
ENDBRANCH   7  10
ENDBRANCH   5   6
BRANCH   5  48
ATOM     48  CB  TRP A   7       0.308 -20.823  -9.100  0.00  0.00    +0.057 C 
BRANCH  48  49
ATOM     49  CG  TRP A   7      -0.857 -20.038  -9.612  0.00  0.00    -0.002 A 
ATOM     50  CD1 TRP A   7      -2.081 -19.910  -9.020  0.00  0.00    +0.068 A 
ATOM     51  NE1 TRP A   7      -2.892 -19.105  -9.779  0.00  0.00    -0.352 N 
ATOM     52  HE1 TRP A   7      -3.875 -18.851  -9.552  0.00  0.00    +0.166 HD
ATOM     53  CE2 TRP A   7      -2.198 -18.690 -10.885  0.00  0.00    +0.056 A 
ATOM     54  CZ2 TRP A   7      -2.594 -17.863 -11.939  0.00  0.00    +0.017 A 
ATOM     55  CH2 TRP A   7      -1.675 -17.611 -12.925  0.00  0.00    +0.001 A 
ATOM     56  CZ3 TRP A   7      -0.385 -18.161 -12.880  0.00  0.00    +0.000 A 
ATOM     57  CE3 TRP A   7       0.010 -18.983 -11.833  0.00  0.00    +0.001 A 
ATOM     58  CD2 TRP A   7      -0.908 -19.257 -10.812  0.00  0.00    +0.013 A 
ENDBRANCH  48  49
ENDBRANCH   5  48
ENDBRANCH   3   5
BRANCH   1  59
ATOM     59  CA  GLY A   6       0.441 -17.732  -5.358  0.00  0.00    +0.176 C 
BRANCH  59  61
ATOM     60  C   PHE A   5      -1.057 -16.614  -6.932  0.00  0.00    +0.241 C 
ATOM     61  N   GLY A   6      -0.882 -17.360  -5.841  0.00  0.00    -0.295 N 
ATOM     62  H   GLY A   6      -1.718 -17.687  -5.317  0.00  0.00    +0.150 HD
ATOM     63  O   PHE A   5      -0.120 -16.222  -7.633  0.00  0.00    -0.273 OA
BRANCH  60  64
ATOM     64  CA  PHE A   5      -2.502 -16.247  -7.295  0.00  0.00    +0.153 C 
BRANCH  64  67
ATOM     65  C   ASP A   4      -2.923 -14.751  -5.403  0.00  0.00    +0.241 C 
ATOM     66  O   ASP A   4      -1.831 -14.187  -5.533  0.00  0.00    -0.273 OA
ATOM     67  N   PHE A   5      -3.296 -15.793  -6.147  0.00  0.00    -0.297 N 
ATOM     68  H   PHE A   5      -4.173 -16.298  -5.907  0.00  0.00    +0.150 HD
BRANCH  65  69
ATOM     69  CA  ASP A   4      -3.922 -14.267  -4.352  0.00  0.00    +0.160 C 
BRANCH  69  72
ATOM     70  C   ALA A   3      -3.029 -14.067  -2.092  0.00  0.00    +0.241 C 
ATOM     71  O   ALA A   3      -3.378 -15.204  -1.788  0.00  0.00    -0.273 OA
ATOM     72  N   ASP A   4      -3.235 -13.539  -3.292  0.00  0.00    -0.297 N 
ATOM     73  H   ASP A   4      -2.895 -12.575  -3.482  0.00  0.00    +0.150 HD
BRANCH  70  74
ATOM     74  CA  ALA A   3      -2.324 -13.174  -1.086  0.00  0.00    +0.149 C 
ATOM     75  CB  ALA A   3      -0.821 -13.177  -1.323  0.00  0.00    +0.031 C 
BRANCH  74  77
ATOM     76  C   ILE A   2      -3.802 -13.298   0.842  0.00  0.00    +0.241 C 
ATOM     77  N   ALA A   3      -2.629 -13.570   0.282  0.00  0.00    -0.297 N 
ATOM     78  H   ALA A   3      -1.910 -14.079   0.834  0.00  0.00    +0.150 HD
ATOM     79  O   ILE A   2      -4.712 -12.744   0.234  0.00  0.00    -0.273 OA
BRANCH  76  80
ATOM     80  CA  ILE A   2      -3.972 -13.700   2.310  0.00  0.00    +0.148 C 
BRANCH  80  82
ATOM     81  C   LYS A   1      -3.272 -11.650   3.387  0.00  0.00    +0.238 C 
ATOM     82  N   ILE A   2      -4.236 -12.522   3.121  0.00  0.00    -0.297 N 
ATOM     83  H   ILE A   2      -5.192 -12.361   3.497  0.00  0.00    +0.150 HD
ATOM     84  O   LYS A   1      -2.100 -11.832   3.040  0.00  0.00    -0.274 OA
BRANCH  81  85
ATOM     85  CA  LYS A   1      -3.670 -10.411   4.198  0.00  0.00    +0.145 C 
BRANCH  85  86
ATOM     86  N   LYS A   1      -3.037 -10.471   5.506  0.00  0.00    -0.238 NA
ATOM     87  H   LYS A   1      -2.016 -10.664   5.551  0.00  0.00    +0.142 HD
ENDBRANCH  85  86
BRANCH  85  88
ATOM     88  CB  LYS A   1      -3.241  -9.129   3.482  0.00  0.00    +0.026 C 
BRANCH  88  89
ATOM     89  CG  LYS A   1      -4.384  -8.175   3.191  0.00  0.00    -0.000 C 
BRANCH  89  90
ATOM     90  CD  LYS A   1      -4.622  -7.110   4.239  0.00  0.00    -0.024 C 
BRANCH  90  91
ATOM     91  CE  LYS A   1      -6.043  -6.576   4.045  0.00  0.00    -0.086 C 
BRANCH  91  92
ATOM     92  NZ  LYS A   1      -6.253  -5.211   4.565  0.00  0.00    +0.380 N 
ATOM     93  HZ1 LYS A   1      -6.058  -5.197   5.586  0.00  0.00    -0.089 HD
ATOM     94  HZ2 LYS A   1      -7.238  -4.924   4.395  0.00  0.00    -0.089 HD
ATOM     95  HZ3 LYS A   1      -5.610  -4.553   4.079  0.00  0.00    -0.089 HD
ENDBRANCH  91  92
ENDBRANCH  90  91
ENDBRANCH  89  90
ENDBRANCH  88  89
ENDBRANCH  85  88
ENDBRANCH  81  85
ENDBRANCH  80  82
BRANCH  80  96
ATOM     96  CB  ILE A   2      -5.106 -14.726   2.424  0.00  0.00    +0.027 C 
ATOM     97  CG2 ILE A   2      -4.819 -15.945   1.543  0.00  0.00    +0.002 C 
BRANCH  96  98
ATOM     98  CG1 ILE A   2      -5.307 -15.138   3.882  0.00  0.00    +0.002 C 
ATOM     99  CD1 ILE A   2      -6.547 -15.956   4.105  0.00  0.00    +0.000 C 
ENDBRANCH  96  98
ENDBRANCH  80  96
ENDBRANCH  76  80
ENDBRANCH  74  77
ENDBRANCH  70  74
ENDBRANCH  69  72
BRANCH  69 100
ATOM    100  CB  ASP A   4      -4.965 -13.357  -5.013  0.00  0.00    +0.143 C 
BRANCH 100 101
ATOM    101  CG  ASP A   4      -5.811 -12.594  -3.994  0.00  0.00    +0.367 C 
ATOM    102  OD2 ASP A   4      -6.275 -13.218  -3.006  0.00  0.00    -0.246 OA
ATOM    103  OD1 ASP A   4      -6.008 -11.367  -4.179  0.00  0.00    -0.246 OA
ENDBRANCH 100 101
ENDBRANCH  69 100
ENDBRANCH  65  69
ENDBRANCH  64  67
BRANCH  64 104
ATOM    104  CB  PHE A   5      -2.495 -15.177  -8.404  0.00  0.00    +0.055 C 
BRANCH 104 105
ATOM    105  CG  PHE A   5      -3.827 -14.511  -8.620  0.00  0.00    -0.020 A 
ATOM    106  CD2 PHE A   5      -4.016 -13.179  -8.277  0.00  0.00    -0.004 A 
ATOM    107  CE2 PHE A   5      -5.241 -12.562  -8.464  0.00  0.00    -0.000 A 
ATOM    108  CZ  PHE A   5      -6.303 -13.280  -8.996  0.00  0.00    -0.000 A 
ATOM    109  CE1 PHE A   5      -6.128 -14.612  -9.337  0.00  0.00    -0.000 A 
ATOM    110  CD1 PHE A   5      -4.895 -15.219  -9.150  0.00  0.00    -0.004 A 
ENDBRANCH 104 105
ENDBRANCH  64 104
ENDBRANCH  60  64
ENDBRANCH  59  61
ENDBRANCH   1  59
TORSDOF 41
REMARK  Name = ../refined-set-2016/2wtv/2wtv_pocket.pdb
REMARK  217 active torsions:
REMARK  status: ('A' for Active; 'I' for Inactive)
REMARK    1  A    between atoms: _1  and  _3
REMARK    2  A    between atoms: _3  and  _4
REMARK    3  A    between atoms: _3  and  _6
REMARK    4  A    between atoms: _6  and  _7
REMARK    5  A    between atoms: _7  and  _8
REMARK    6  A    between atoms: _8  and  _9
REMARK    7  A    between atoms: _19  and  _20
REMARK    8  A    between atoms: _25  and  _27
REMARK    9  A    between atoms: _27  and  _28
REMARK   10  A    between atoms: _27  and  _30
REMARK   11  A    between atoms: _30  and  _31
REMARK   12  A    between atoms: _34  and  _36
REMARK   13  A    between atoms: _36  and  _37
REMARK   14  A    between atoms: _39  and  _41
REMARK   15  A    between atoms: _41  and  _42
REMARK   16  A    between atoms: _41  and  _44
REMARK   17  A    between atoms: _44  and  _45
REMARK   18  A    between atoms: _45  and  _46
REMARK   19  A    between atoms: _46  and  _47
REMARK   20  A    between atoms: _47  and  _48
REMARK   21  A    between atoms: _52  and  _54
REMARK   22  A    between atoms: _54  and  _55
REMARK   23  A    between atoms: _57  and  _59
REMARK   24  A    between atoms: _59  and  _60
REMARK   25  A    between atoms: _59  and  _62
REMARK   26  A    between atoms: _62  and  _63
REMARK   27  A    between atoms: _63  and  _64
REMARK   28  A    between atoms: _64  and  _65
REMARK   29  A    between atoms: _65  and  _66
REMARK   30  A    between atoms: _70  and  _72
REMARK   31  A    between atoms: _72  and  _73
REMARK   32  A    between atoms: _72  and  _75
REMARK   33  A    between atoms: _75  and  _76
REMARK   34  A    between atoms: _82  and  _84
REMARK   35  A    between atoms: _84  and  _85
REMARK   36  A    between atoms: _87  and  _89
REMARK   37  A    between atoms: _89  and  _90
REMARK   38  A    between atoms: _89  and  _92
REMARK   39  A    between atoms: _92  and  _93
REMARK   40  A    between atoms: _98  and  _100
REMARK   41  A    between atoms: _100  and  _101
REMARK   42  A    between atoms: _100  and  _103
REMARK   43  A    between atoms: _106  and  _108
REMARK   44  A    between atoms: _108  and  _109
REMARK   45  A    between atoms: _108  and  _111
REMARK   46  A    between atoms: _111  and  _112
REMARK   47  A    between atoms: _117  and  _118
REMARK   48  A    between atoms: _120  and  _122
REMARK   49  A    between atoms: _122  and  _123
REMARK   50  A    between atoms: _122  and  _125
REMARK   51  A    between atoms: _125  and  _126
REMARK   52  A    between atoms: _129  and  _131
REMARK   53  A    between atoms: _131  and  _132
REMARK   54  A    between atoms: _131  and  _134
REMARK   55  A    between atoms: _134  and  _135
REMARK   56  A    between atoms: _138  and  _140
REMARK   57  A    between atoms: _140  and  _141
REMARK   58  A    between atoms: _140  and  _143
REMARK   59  A    between atoms: _143  and  _144
REMARK   60  A    between atoms: _147  and  _149
REMARK   61  A    between atoms: _149  and  _150
REMARK   62  A    between atoms: _153  and  _155
REMARK   63  A    between atoms: _155  and  _156
REMARK   64  A    between atoms: _155  and  _158
REMARK   65  A    between atoms: _158  and  _159
REMARK   66  A    between atoms: _162  and  _164
REMARK   67  A    between atoms: _164  and  _165
REMARK   68  A    between atoms: _164  and  _167
REMARK   69  A    between atoms: _167  and  _168
REMARK   70  A    between atoms: _168  and  _169
REMARK   71  A    between atoms: _169  and  _170
REMARK   72  A    between atoms: _170  and  _171
REMARK   73  A    between atoms: _175  and  _177
REMARK   74  A    between atoms: _177  and  _178
REMARK   75  A    between atoms: _177  and  _180
REMARK   76  A    between atoms: _183  and  _185
REMARK   77  A    between atoms: _185  and  _186
REMARK   78  A    between atoms: _185  and  _188
REMARK   79  A    between atoms: _188  and  _189
REMARK   80  A    between atoms: _192  and  _194
REMARK   81  A    between atoms: _194  and  _195
REMARK   82  A    between atoms: _194  and  _197
REMARK   83  A    between atoms: _197  and  _198
REMARK   84  A    between atoms: _201  and  _203
REMARK   85  A    between atoms: _203  and  _204
REMARK   86  A    between atoms: _203  and  _206
REMARK   87  A    between atoms: _206  and  _207
REMARK   88  A    between atoms: _207  and  _208
REMARK   89  A    between atoms: _208  and  _209
REMARK   90  A    between atoms: _218  and  _220
REMARK   91  A    between atoms: _220  and  _221
REMARK   92  A    between atoms: _220  and  _223
REMARK   93  A    between atoms: _223  and  _224
REMARK   94  A    between atoms: _227  and  _229
REMARK   95  A    between atoms: _229  and  _230
REMARK   96  A    between atoms: _229  and  _232
REMARK   97  A    between atoms: _232  and  _233
REMARK   98  A    between atoms: _236  and  _238
REMARK   99  A    between atoms: _238  and  _239
REMARK  100  A    between atoms: _238  and  _241
REMARK  101  A    between atoms: _241  and  _242
REMARK  102  A    between atoms: _245  and  _247
REMARK  103  A    between atoms: _247  and  _248
REMARK  104  A    between atoms: _247  and  _250
REMARK  105  A    between atoms: _250  and  _251
REMARK  106  A    between atoms: _251  and  _252
REMARK  107  A    between atoms: _255  and  _257
REMARK  108  A    between atoms: _257  and  _258
REMARK  109  A    between atoms: _257  and  _260
REMARK  110  A    between atoms: _260  and  _261
REMARK  111  A    between atoms: _266  and  _267
REMARK  112  A    between atoms: _269  and  _271
REMARK  113  A    between atoms: _271  and  _272
REMARK  114  A    between atoms: _276  and  _277
REMARK  115  A    between atoms: _282  and  _284
REMARK  116  A    between atoms: _284  and  _285
REMARK  117  A    between atoms: _284  and  _287
REMARK  118  A    between atoms: _287  and  _288
REMARK  119  A    between atoms: _288  and  _289
REMARK  120  A    between atoms: _289  and  _290
REMARK  121  A    between atoms: _299  and  _301
REMARK  122  A    between atoms: _301  and  _302
REMARK  123  A    between atoms: _304  and  _306
REMARK  124  A    between atoms: _306  and  _307
REMARK  125  A    between atoms: _306  and  _309
REMARK  126  A    between atoms: _309  and  _310
REMARK  127  A    between atoms: _310  and  _311
REMARK  128  A    between atoms: _314  and  _316
REMARK  129  A    between atoms: _316  and  _317
REMARK  130  A    between atoms: _316  and  _319
REMARK  131  A    between atoms: _322  and  _324
REMARK  132  A    between atoms: _324  and  _325
REMARK  133  A    between atoms: _324  and  _327
REMARK  134  A    between atoms: _327  and  _328
REMARK  135  A    between atoms: _333  and  _334
REMARK  136  A    between atoms: _336  and  _338
REMARK  137  A    between atoms: _338  and  _339
REMARK  138  A    between atoms: _338  and  _341
REMARK  139  A    between atoms: _341  and  _342
REMARK  140  A    between atoms: _342  and  _343
REMARK  141  A    between atoms: _343  and  _344
REMARK  142  A    between atoms: _344  and  _345
REMARK  143  A    between atoms: _349  and  _351
REMARK  144  A    between atoms: _351  and  _352
REMARK  145  A    between atoms: _351  and  _354
REMARK  146  A    between atoms: _354  and  _355
REMARK  147  A    between atoms: _355  and  _356
REMARK  148  A    between atoms: _356  and  _357
REMARK  149  A    between atoms: _366  and  _368
REMARK  150  A    between atoms: _368  and  _369
REMARK  151  A    between atoms: _368  and  _371
REMARK  152  A    between atoms: _371  and  _372
REMARK  153  A    between atoms: _376  and  _377
REMARK  154  A    between atoms: _382  and  _384
REMARK  155  A    between atoms: _384  and  _385
REMARK  156  A    between atoms: _384  and  _387
REMARK  157  A    between atoms: _387  and  _388
REMARK  158  A    between atoms: _388  and  _389
REMARK  159  A    between atoms: _392  and  _394
REMARK  160  A    between atoms: _394  and  _395
REMARK  161  A    between atoms: _394  and  _397
REMARK  162  A    between atoms: _397  and  _398
REMARK  163  A    between atoms: _403  and  _405
REMARK  164  A    between atoms: _405  and  _406
REMARK  165  A    between atoms: _405  and  _408
REMARK  166  A    between atoms: _408  and  _409
REMARK  167  A    between atoms: _412  and  _414
REMARK  168  A    between atoms: _414  and  _415
REMARK  169  A    between atoms: _414  and  _417
REMARK  170  A    between atoms: _417  and  _418
REMARK  171  A    between atoms: _421  and  _423
REMARK  172  A    between atoms: _423  and  _424
REMARK  173  A    between atoms: _423  and  _426
REMARK  174  A    between atoms: _426  and  _427
REMARK  175  A    between atoms: _430  and  _432
REMARK  176  A    between atoms: _432  and  _433
REMARK  177  A    between atoms: _435  and  _437
REMARK  178  A    between atoms: _437  and  _438
REMARK  179  A    between atoms: _437  and  _440
REMARK  180  A    between atoms: _440  and  _441
REMARK  181  A    between atoms: _441  and  _442
REMARK  182  A    between atoms: _442  and  _443
REMARK  183  A    between atoms: _443  and  _444
REMARK  184  A    between atoms: _448  and  _450
REMARK  185  A    between atoms: _450  and  _451
REMARK  186  A    between atoms: _450  and  _453
REMARK  187  A    between atoms: _453  and  _454
REMARK  188  A    between atoms: _457  and  _459
REMARK  189  A    between atoms: _459  and  _460
REMARK  190  A    between atoms: _463  and  _465
REMARK  191  A    between atoms: _465  and  _466
REMARK  192  A    between atoms: _465  and  _468
REMARK  193  A    between atoms: _468  and  _469
REMARK  194  A    between atoms: _472  and  _474
REMARK  195  A    between atoms: _474  and  _475
REMARK  196  A    between atoms: _474  and  _477
REMARK  197  A    between atoms: _477  and  _478
REMARK  198  A    between atoms: _484  and  _486
REMARK  199  A    between atoms: _486  and  _487
REMARK  200  A    between atoms: _489  and  _491
REMARK  201  A    between atoms: _491  and  _492
REMARK  202  A    between atoms: _491  and  _494
REMARK  203  A    between atoms: _494  and  _495
REMARK  204  A    between atoms: _505  and  _507
REMARK  205  A    between atoms: _507  and  _508
REMARK  206  A    between atoms: _507  and  _510
REMARK  207  A    between atoms: _510  and  _511
REMARK  208  A    between atoms: _513  and  _515
REMARK  209  A    between atoms: _515  and  _516
REMARK  210  A    between atoms: _515  and  _518
REMARK  211  A    between atoms: _521  and  _523
REMARK  212  A    between atoms: _523  and  _524
REMARK  213  A    between atoms: _523  and  _526
REMARK  214  A    between atoms: _526  and  _527
REMARK  215  A    between atoms: _532  and  _534
REMARK  216  A    between atoms: _534  and  _535
REMARK  217  A    between atoms: _539  and  _540
REMARK                            x       y       z     vdW  Elec       q    Type
REMARK                         _______ _______ _______ _____ _____    ______ ____
ROOT
ATOM      1  O   HOH     1       7.485  -0.986  -0.912  0.00  0.00    +0.000 OA
ENDROOT
TORSDOF 0
REMARK  Name = ../refined-set-2016/2wtv/2wtv_pocket.pdb
REMARK  217 active torsions:
REMARK  status: ('A' for Active; 'I' for Inactive)
REMARK    1  A    between atoms: _1  and  _3
REMARK    2  A    between atoms: _3  and  _4
REMARK    3  A    between atoms: _3  and  _6
REMARK    4  A    between atoms: _6  and  _7
REMARK    5  A    between atoms: _7  and  _8
REMARK    6  A    between atoms: _8  and  _9
REMARK    7  A    between atoms: _19  and  _20
REMARK    8  A    between atoms: _25  and  _27
REMARK    9  A    between atoms: _27  and  _28
REMARK   10  A    between atoms: _27  and  _30
REMARK   11  A    between atoms: _30  and  _31
REMARK   12  A    between atoms: _34  and  _36
REMARK   13  A    between atoms: _36  and  _37
REMARK   14  A    between atoms: _39  and  _41
REMARK   15  A    between atoms: _41  and  _42
REMARK   16  A    between atoms: _41  and  _44
REMARK   17  A    between atoms: _44  and  _45
REMARK   18  A    between atoms: _45  and  _46
REMARK   19  A    between atoms: _46  and  _47
REMARK   20  A    between atoms: _47  and  _48
REMARK   21  A    between atoms: _52  and  _54
REMARK   22  A    between atoms: _54  and  _55
REMARK   23  A    between atoms: _57  and  _59
REMARK   24  A    between atoms: _59  and  _60
REMARK   25  A    between atoms: _59  and  _62
REMARK   26  A    between atoms: _62  and  _63
REMARK   27  A    between atoms: _63  and  _64
REMARK   28  A    between atoms: _64  and  _65
REMARK   29  A    between atoms: _65  and  _66
REMARK   30  A    between atoms: _70  and  _72
REMARK   31  A    between atoms: _72  and  _73
REMARK   32  A    between atoms: _72  and  _75
REMARK   33  A    between atoms: _75  and  _76
REMARK   34  A    between atoms: _82  and  _84
REMARK   35  A    between atoms: _84  and  _85
REMARK   36  A    between atoms: _87  and  _89
REMARK   37  A    between atoms: _89  and  _90
REMARK   38  A    between atoms: _89  and  _92
REMARK   39  A    between atoms: _92  and  _93
REMARK   40  A    between atoms: _98  and  _100
REMARK   41  A    between atoms: _100  and  _101
REMARK   42  A    between atoms: _100  and  _103
REMARK   43  A    between atoms: _106  and  _108
REMARK   44  A    between atoms: _108  and  _109
REMARK   45  A    between atoms: _108  and  _111
REMARK   46  A    between atoms: _111  and  _112
REMARK   47  A    between atoms: _117  and  _118
REMARK   48  A    between atoms: _120  and  _122
REMARK   49  A    between atoms: _122  and  _123
REMARK   50  A    between atoms: _122  and  _125
REMARK   51  A    between atoms: _125  and  _126
REMARK   52  A    between atoms: _129  and  _131
REMARK   53  A    between atoms: _131  and  _132
REMARK   54  A    between atoms: _131  and  _134
REMARK   55  A    between atoms: _134  and  _135
REMARK   56  A    between atoms: _138  and  _140
REMARK   57  A    between atoms: _140  and  _141
REMARK   58  A    between atoms: _140  and  _143
REMARK   59  A    between atoms: _143  and  _144
REMARK   60  A    between atoms: _147  and  _149
REMARK   61  A    between atoms: _149  and  _150
REMARK   62  A    between atoms: _153  and  _155
REMARK   63  A    between atoms: _155  and  _156
REMARK   64  A    between atoms: _155  and  _158
REMARK   65  A    between atoms: _158  and  _159
REMARK   66  A    between atoms: _162  and  _164
REMARK   67  A    between atoms: _164  and  _165
REMARK   68  A    between atoms: _164  and  _167
REMARK   69  A    between atoms: _167  and  _168
REMARK   70  A    between atoms: _168  and  _169
REMARK   71  A    between atoms: _169  and  _170
REMARK   72  A    between atoms: _170  and  _171
REMARK   73  A    between atoms: _175  and  _177
REMARK   74  A    between atoms: _177  and  _178
REMARK   75  A    between atoms: _177  and  _180
REMARK   76  A    between atoms: _183  and  _185
REMARK   77  A    between atoms: _185  and  _186
REMARK   78  A    between atoms: _185  and  _188
REMARK   79  A    between atoms: _188  and  _189
REMARK   80  A    between atoms: _192  and  _194
REMARK   81  A    between atoms: _194  and  _195
REMARK   82  A    between atoms: _194  and  _197
REMARK   83  A    between atoms: _197  and  _198
REMARK   84  A    between atoms: _201  and  _203
REMARK   85  A    between atoms: _203  and  _204
REMARK   86  A    between atoms: _203  and  _206
REMARK   87  A    between atoms: _206  and  _207
REMARK   88  A    between atoms: _207  and  _208
REMARK   89  A    between atoms: _208  and  _209
REMARK   90  A    between atoms: _218  and  _220
REMARK   91  A    between atoms: _220  and  _221
REMARK   92  A    between atoms: _220  and  _223
REMARK   93  A    between atoms: _223  and  _224
REMARK   94  A    between atoms: _227  and  _229
REMARK   95  A    between atoms: _229  and  _230
REMARK   96  A    between atoms: _229  and  _232
REMARK   97  A    between atoms: _232  and  _233
REMARK   98  A    between atoms: _236  and  _238
REMARK   99  A    between atoms: _238  and  _239
REMARK  100  A    between atoms: _238  and  _241
REMARK  101  A    between atoms: _241  and  _242
REMARK  102  A    between atoms: _245  and  _247
REMARK  103  A    between atoms: _247  and  _248
REMARK  104  A    between atoms: _247  and  _250
REMARK  105  A    between atoms: _250  and  _251
REMARK  106  A    between atoms: _251  and  _252
REMARK  107  A    between atoms: _255  and  _257
REMARK  108  A    between atoms: _257  and  _258
REMARK  109  A    between atoms: _257  and  _260
REMARK  110  A    between atoms: _260  and  _261
REMARK  111  A    between atoms: _266  and  _267
REMARK  112  A    between atoms: _269  and  _271
REMARK  113  A    between atoms: _271  and  _272
REMARK  114  A    between atoms: _276  and  _277
REMARK  115  A    between atoms: _282  and  _284
REMARK  116  A    between atoms: _284  and  _285
REMARK  117  A    between atoms: _284  and  _287
REMARK  118  A    between atoms: _287  and  _288
REMARK  119  A    between atoms: _288  and  _289
REMARK  120  A    between atoms: _289  and  _290
REMARK  121  A    between atoms: _299  and  _301
REMARK  122  A    between atoms: _301  and  _302
REMARK  123  A    between atoms: _304  and  _306
REMARK  124  A    between atoms: _306  and  _307
REMARK  125  A    between atoms: _306  and  _309
REMARK  126  A    between atoms: _309  and  _310
REMARK  127  A    between atoms: _310  and  _311
REMARK  128  A    between atoms: _314  and  _316
REMARK  129  A    between atoms: _316  and  _317
REMARK  130  A    between atoms: _316  and  _319
REMARK  131  A    between atoms: _322  and  _324
REMARK  132  A    between atoms: _324  and  _325
REMARK  133  A    between atoms: _324  and  _327
REMARK  134  A    between atoms: _327  and  _328
REMARK  135  A    between atoms: _333  and  _334
REMARK  136  A    between atoms: _336  and  _338
REMARK  137  A    between atoms: _338  and  _339
REMARK  138  A    between atoms: _338  and  _341
REMARK  139  A    between atoms: _341  and  _342
REMARK  140  A    between atoms: _342  and  _343
REMARK  141  A    between atoms: _343  and  _344
REMARK  142  A    between atoms: _344  and  _345
REMARK  143  A    between atoms: _349  and  _351
REMARK  144  A    between atoms: _351  and  _352
REMARK  145  A    between atoms: _351  and  _354
REMARK  146  A    between atoms: _354  and  _355
REMARK  147  A    between atoms: _355  and  _356
REMARK  148  A    between atoms: _356  and  _357
REMARK  149  A    between atoms: _366  and  _368
REMARK  150  A    between atoms: _368  and  _369
REMARK  151  A    between atoms: _368  and  _371
REMARK  152  A    between atoms: _371  and  _372
REMARK  153  A    between atoms: _376  and  _377
REMARK  154  A    between atoms: _382  and  _384
REMARK  155  A    between atoms: _384  and  _385
REMARK  156  A    between atoms: _384  and  _387
REMARK  157  A    between atoms: _387  and  _388
REMARK  158  A    between atoms: _388  and  _389
REMARK  159  A    between atoms: _392  and  _394
REMARK  160  A    between atoms: _394  and  _395
REMARK  161  A    between atoms: _394  and  _397
REMARK  162  A    between atoms: _397  and  _398
REMARK  163  A    between atoms: _403  and  _405
REMARK  164  A    between atoms: _405  and  _406
REMARK  165  A    between atoms: _405  and  _408
REMARK  166  A    between atoms: _408  and  _409
REMARK  167  A    between atoms: _412  and  _414
REMARK  168  A    between atoms: _414  and  _415
REMARK  169  A    between atoms: _414  and  _417
REMARK  170  A    between atoms: _417  and  _418
REMARK  171  A    between atoms: _421  and  _423
REMARK  172  A    between atoms: _423  and  _424
REMARK  173  A    between atoms: _423  and  _426
REMARK  174  A    between atoms: _426  and  _427
REMARK  175  A    between atoms: _430  and  _432
REMARK  176  A    between atoms: _432  and  _433
REMARK  177  A    between atoms: _435  and  _437
REMARK  178  A    between atoms: _437  and  _438
REMARK  179  A    between atoms: _437  and  _440
REMARK  180  A    between atoms: _440  and  _441
REMARK  181  A    between atoms: _441  and  _442
REMARK  182  A    between atoms: _442  and  _443
REMARK  183  A    between atoms: _443  and  _444
REMARK  184  A    between atoms: _448  and  _450
REMARK  185  A    between atoms: _450  and  _451
REMARK  186  A    between atoms: _450  and  _453
REMARK  187  A    between atoms: _453  and  _454
REMARK  188  A    between atoms: _457  and  _459
REMARK  189  A    between atoms: _459  and  _460
REMARK  190  A    between atoms: _463  and  _465
REMARK  191  A    between atoms: _465  and  _466
REMARK  192  A    between atoms: _465  and  _468
REMARK  193  A    between atoms: _468  and  _469
REMARK  194  A    between atoms: _472  and  _474
REMARK  195  A    between atoms: _474  and  _475
REMARK  196  A    between atoms: _474  and  _477
REMARK  197  A    between atoms: _477  and  _478
REMARK  198  A    between atoms: _484  and  _486
REMARK  199  A    between atoms: _486  and  _487
REMARK  200  A    between atoms: _489  and  _491
REMARK  201  A    between atoms: _491  and  _492
REMARK  202  A    between atoms: _491  and  _494
REMARK  203  A    between atoms: _494  and  _495
REMARK  204  A    between atoms: _505  and  _507
REMARK  205  A    between atoms: _507  and  _508
REMARK  206  A    between atoms: _507  and  _510
REMARK  207  A    between atoms: _510  and  _511
REMARK  208  A    between atoms: _513  and  _515
REMARK  209  A    between atoms: _515  and  _516
REMARK  210  A    between atoms: _515  and  _518
REMARK  211  A    between atoms: _521  and  _523
REMARK  212  A    between atoms: _523  and  _524
REMARK  213  A    between atoms: _523  and  _526
REMARK  214  A    between atoms: _526  and  _527
REMARK  215  A    between atoms: _532  and  _534
REMARK  216  A    between atoms: _534  and  _535
REMARK  217  A    between atoms: _539  and  _540
REMARK                            x       y       z     vdW  Elec       q    Type
REMARK                         _______ _______ _______ _____ _____    ______ ____
ROOT
ATOM      1  O   HOH     1      10.456   0.685   1.367  0.00  0.00    +0.000 OA
ENDROOT
TORSDOF 0
REMARK  Name = ../refined-set-2016/2wtv/2wtv_pocket.pdb
REMARK  217 active torsions:
REMARK  status: ('A' for Active; 'I' for Inactive)
REMARK    1  A    between atoms: _1  and  _3
REMARK    2  A    between atoms: _3  and  _4
REMARK    3  A    between atoms: _3  and  _6
REMARK    4  A    between atoms: _6  and  _7
REMARK    5  A    between atoms: _7  and  _8
REMARK    6  A    between atoms: _8  and  _9
REMARK    7  A    between atoms: _19  and  _20
REMARK    8  A    between atoms: _25  and  _27
REMARK    9  A    between atoms: _27  and  _28
REMARK   10  A    between atoms: _27  and  _30
REMARK   11  A    between atoms: _30  and  _31
REMARK   12  A    between atoms: _34  and  _36
REMARK   13  A    between atoms: _36  and  _37
REMARK   14  A    between atoms: _39  and  _41
REMARK   15  A    between atoms: _41  and  _42
REMARK   16  A    between atoms: _41  and  _44
REMARK   17  A    between atoms: _44  and  _45
REMARK   18  A    between atoms: _45  and  _46
REMARK   19  A    between atoms: _46  and  _47
REMARK   20  A    between atoms: _47  and  _48
REMARK   21  A    between atoms: _52  and  _54
REMARK   22  A    between atoms: _54  and  _55
REMARK   23  A    between atoms: _57  and  _59
REMARK   24  A    between atoms: _59  and  _60
REMARK   25  A    between atoms: _59  and  _62
REMARK   26  A    between atoms: _62  and  _63
REMARK   27  A    between atoms: _63  and  _64
REMARK   28  A    between atoms: _64  and  _65
REMARK   29  A    between atoms: _65  and  _66
REMARK   30  A    between atoms: _70  and  _72
REMARK   31  A    between atoms: _72  and  _73
REMARK   32  A    between atoms: _72  and  _75
REMARK   33  A    between atoms: _75  and  _76
REMARK   34  A    between atoms: _82  and  _84
REMARK   35  A    between atoms: _84  and  _85
REMARK   36  A    between atoms: _87  and  _89
REMARK   37  A    between atoms: _89  and  _90
REMARK   38  A    between atoms: _89  and  _92
REMARK   39  A    between atoms: _92  and  _93
REMARK   40  A    between atoms: _98  and  _100
REMARK   41  A    between atoms: _100  and  _101
REMARK   42  A    between atoms: _100  and  _103
REMARK   43  A    between atoms: _106  and  _108
REMARK   44  A    between atoms: _108  and  _109
REMARK   45  A    between atoms: _108  and  _111
REMARK   46  A    between atoms: _111  and  _112
REMARK   47  A    between atoms: _117  and  _118
REMARK   48  A    between atoms: _120  and  _122
REMARK   49  A    between atoms: _122  and  _123
REMARK   50  A    between atoms: _122  and  _125
REMARK   51  A    between atoms: _125  and  _126
REMARK   52  A    between atoms: _129  and  _131
REMARK   53  A    between atoms: _131  and  _132
REMARK   54  A    between atoms: _131  and  _134
REMARK   55  A    between atoms: _134  and  _135
REMARK   56  A    between atoms: _138  and  _140
REMARK   57  A    between atoms: _140  and  _141
REMARK   58  A    between atoms: _140  and  _143
REMARK   59  A    between atoms: _143  and  _144
REMARK   60  A    between atoms: _147  and  _149
REMARK   61  A    between atoms: _149  and  _150
REMARK   62  A    between atoms: _153  and  _155
REMARK   63  A    between atoms: _155  and  _156
REMARK   64  A    between atoms: _155  and  _158
REMARK   65  A    between atoms: _158  and  _159
REMARK   66  A    between atoms: _162  and  _164
REMARK   67  A    between atoms: _164  and  _165
REMARK   68  A    between atoms: _164  and  _167
REMARK   69  A    between atoms: _167  and  _168
REMARK   70  A    between atoms: _168  and  _169
REMARK   71  A    between atoms: _169  and  _170
REMARK   72  A    between atoms: _170  and  _171
REMARK   73  A    between atoms: _175  and  _177
REMARK   74  A    between atoms: _177  and  _178
REMARK   75  A    between atoms: _177  and  _180
REMARK   76  A    between atoms: _183  and  _185
REMARK   77  A    between atoms: _185  and  _186
REMARK   78  A    between atoms: _185  and  _188
REMARK   79  A    between atoms: _188  and  _189
REMARK   80  A    between atoms: _192  and  _194
REMARK   81  A    between atoms: _194  and  _195
REMARK   82  A    between atoms: _194  and  _197
REMARK   83  A    between atoms: _197  and  _198
REMARK   84  A    between atoms: _201  and  _203
REMARK   85  A    between atoms: _203  and  _204
REMARK   86  A    between atoms: _203  and  _206
REMARK   87  A    between atoms: _206  and  _207
REMARK   88  A    between atoms: _207  and  _208
REMARK   89  A    between atoms: _208  and  _209
REMARK   90  A    between atoms: _218  and  _220
REMARK   91  A    between atoms: _220  and  _221
REMARK   92  A    between atoms: _220  and  _223
REMARK   93  A    between atoms: _223  and  _224
REMARK   94  A    between atoms: _227  and  _229
REMARK   95  A    between atoms: _229  and  _230
REMARK   96  A    between atoms: _229  and  _232
REMARK   97  A    between atoms: _232  and  _233
REMARK   98  A    between atoms: _236  and  _238
REMARK   99  A    between atoms: _238  and  _239
REMARK  100  A    between atoms: _238  and  _241
REMARK  101  A    between atoms: _241  and  _242
REMARK  102  A    between atoms: _245  and  _247
REMARK  103  A    between atoms: _247  and  _248
REMARK  104  A    between atoms: _247  and  _250
REMARK  105  A    between atoms: _250  and  _251
REMARK  106  A    between atoms: _251  and  _252
REMARK  107  A    between atoms: _255  and  _257
REMARK  108  A    between atoms: _257  and  _258
REMARK  109  A    between atoms: _257  and  _260
REMARK  110  A    between atoms: _260  and  _261
REMARK  111  A    between atoms: _266  and  _267
REMARK  112  A    between atoms: _269  and  _271
REMARK  113  A    between atoms: _271  and  _272
REMARK  114  A    between atoms: _276  and  _277
REMARK  115  A    between atoms: _282  and  _284
REMARK  116  A    between atoms: _284  and  _285
REMARK  117  A    between atoms: _284  and  _287
REMARK  118  A    between atoms: _287  and  _288
REMARK  119  A    between atoms: _288  and  _289
REMARK  120  A    between atoms: _289  and  _290
REMARK  121  A    between atoms: _299  and  _301
REMARK  122  A    between atoms: _301  and  _302
REMARK  123  A    between atoms: _304  and  _306
REMARK  124  A    between atoms: _306  and  _307
REMARK  125  A    between atoms: _306  and  _309
REMARK  126  A    between atoms: _309  and  _310
REMARK  127  A    between atoms: _310  and  _311
REMARK  128  A    between atoms: _314  and  _316
REMARK  129  A    between atoms: _316  and  _317
REMARK  130  A    between atoms: _316  and  _319
REMARK  131  A    between atoms: _322  and  _324
REMARK  132  A    between atoms: _324  and  _325
REMARK  133  A    between atoms: _324  and  _327
REMARK  134  A    between atoms: _327  and  _328
REMARK  135  A    between atoms: _333  and  _334
REMARK  136  A    between atoms: _336  and  _338
REMARK  137  A    between atoms: _338  and  _339
REMARK  138  A    between atoms: _338  and  _341
REMARK  139  A    between atoms: _341  and  _342
REMARK  140  A    between atoms: _342  and  _343
REMARK  141  A    between atoms: _343  and  _344
REMARK  142  A    between atoms: _344  and  _345
REMARK  143  A    between atoms: _349  and  _351
REMARK  144  A    between atoms: _351  and  _352
REMARK  145  A    between atoms: _351  and  _354
REMARK  146  A    between atoms: _354  and  _355
REMARK  147  A    between atoms: _355  and  _356
REMARK  148  A    between atoms: _356  and  _357
REMARK  149  A    between atoms: _366  and  _368
REMARK  150  A    between atoms: _368  and  _369
REMARK  151  A    between atoms: _368  and  _371
REMARK  152  A    between atoms: _371  and  _372
REMARK  153  A    between atoms: _376  and  _377
REMARK  154  A    between atoms: _382  and  _384
REMARK  155  A    between atoms: _384  and  _385
REMARK  156  A    between atoms: _384  and  _387
REMARK  157  A    between atoms: _387  and  _388
REMARK  158  A    between atoms: _388  and  _389
REMARK  159  A    between atoms: _392  and  _394
REMARK  160  A    between atoms: _394  and  _395
REMARK  161  A    between atoms: _394  and  _397
REMARK  162  A    between atoms: _397  and  _398
REMARK  163  A    between atoms: _403  and  _405
REMARK  164  A    between atoms: _405  and  _406
REMARK  165  A    between atoms: _405  and  _408
REMARK  166  A    between atoms: _408  and  _409
REMARK  167  A    between atoms: _412  and  _414
REMARK  168  A    between atoms: _414  and  _415
REMARK  169  A    between atoms: _414  and  _417
REMARK  170  A    between atoms: _417  and  _418
REMARK  171  A    between atoms: _421  and  _423
REMARK  172  A    between atoms: _423  and  _424
REMARK  173  A    between atoms: _423  and  _426
REMARK  174  A    between atoms: _426  and  _427
REMARK  175  A    between atoms: _430  and  _432
REMARK  176  A    between atoms: _432  and  _433
REMARK  177  A    between atoms: _435  and  _437
REMARK  178  A    between atoms: _437  and  _438
REMARK  179  A    between atoms: _437  and  _440
REMARK  180  A    between atoms: _440  and  _441
REMARK  181  A    between atoms: _441  and  _442
REMARK  182  A    between atoms: _442  and  _443
REMARK  183  A    between atoms: _443  and  _444
REMARK  184  A    between atoms: _448  and  _450
REMARK  185  A    between atoms: _450  and  _451
REMARK  186  A    between atoms: _450  and  _453
REMARK  187  A    between atoms: _453  and  _454
REMARK  188  A    between atoms: _457  and  _459
REMARK  189  A    between atoms: _459  and  _460
REMARK  190  A    between atoms: _463  and  _465
REMARK  191  A    between atoms: _465  and  _466
REMARK  192  A    between atoms: _465  and  _468
REMARK  193  A    between atoms: _468  and  _469
REMARK  194  A    between atoms: _472  and  _474
REMARK  195  A    between atoms: _474  and  _475
REMARK  196  A    between atoms: _474  and  _477
REMARK  197  A    between atoms: _477  and  _478
REMARK  198  A    between atoms: _484  and  _486
REMARK  199  A    between atoms: _486  and  _487
REMARK  200  A    between atoms: _489  and  _491
REMARK  201  A    between atoms: _491  and  _492
REMARK  202  A    between atoms: _491  and  _494
REMARK  203  A    between atoms: _494  and  _495
REMARK  204  A    between atoms: _505  and  _507
REMARK  205  A    between atoms: _507  and  _508
REMARK  206  A    between atoms: _507  and  _510
REMARK  207  A    between atoms: _510  and  _511
REMARK  208  A    between atoms: _513  and  _515
REMARK  209  A    between atoms: _515  and  _516
REMARK  210  A    between atoms: _515  and  _518
REMARK  211  A    between atoms: _521  and  _523
REMARK  212  A    between atoms: _523  and  _524
REMARK  213  A    between atoms: _523  and  _526
REMARK  214  A    between atoms: _526  and  _527
REMARK  215  A    between atoms: _532  and  _534
REMARK  216  A    between atoms: _534  and  _535
REMARK  217  A    between atoms: _539  and  _540
REMARK                            x       y       z     vdW  Elec       q    Type
REMARK                         _______ _______ _______ _____ _____    ______ ____
ROOT
ATOM      1  O   HOH     1       3.982 -13.558 -12.670  0.00  0.00    +0.000 OA
ENDROOT
TORSDOF 0
REMARK  Name = ../refined-set-2016/2wtv/2wtv_pocket.pdb
REMARK  217 active torsions:
REMARK  status: ('A' for Active; 'I' for Inactive)
REMARK    1  A    between atoms: _1  and  _3
REMARK    2  A    between atoms: _3  and  _4
REMARK    3  A    between atoms: _3  and  _6
REMARK    4  A    between atoms: _6  and  _7
REMARK    5  A    between atoms: _7  and  _8
REMARK    6  A    between atoms: _8  and  _9
REMARK    7  A    between atoms: _19  and  _20
REMARK    8  A    between atoms: _25  and  _27
REMARK    9  A    between atoms: _27  and  _28
REMARK   10  A    between atoms: _27  and  _30
REMARK   11  A    between atoms: _30  and  _31
REMARK   12  A    between atoms: _34  and  _36
REMARK   13  A    between atoms: _36  and  _37
REMARK   14  A    between atoms: _39  and  _41
REMARK   15  A    between atoms: _41  and  _42
REMARK   16  A    between atoms: _41  and  _44
REMARK   17  A    between atoms: _44  and  _45
REMARK   18  A    between atoms: _45  and  _46
REMARK   19  A    between atoms: _46  and  _47
REMARK   20  A    between atoms: _47  and  _48
REMARK   21  A    between atoms: _52  and  _54
REMARK   22  A    between atoms: _54  and  _55
REMARK   23  A    between atoms: _57  and  _59
REMARK   24  A    between atoms: _59  and  _60
REMARK   25  A    between atoms: _59  and  _62
REMARK   26  A    between atoms: _62  and  _63
REMARK   27  A    between atoms: _63  and  _64
REMARK   28  A    between atoms: _64  and  _65
REMARK   29  A    between atoms: _65  and  _66
REMARK   30  A    between atoms: _70  and  _72
REMARK   31  A    between atoms: _72  and  _73
REMARK   32  A    between atoms: _72  and  _75
REMARK   33  A    between atoms: _75  and  _76
REMARK   34  A    between atoms: _82  and  _84
REMARK   35  A    between atoms: _84  and  _85
REMARK   36  A    between atoms: _87  and  _89
REMARK   37  A    between atoms: _89  and  _90
REMARK   38  A    between atoms: _89  and  _92
REMARK   39  A    between atoms: _92  and  _93
REMARK   40  A    between atoms: _98  and  _100
REMARK   41  A    between atoms: _100  and  _101
REMARK   42  A    between atoms: _100  and  _103
REMARK   43  A    between atoms: _106  and  _108
REMARK   44  A    between atoms: _108  and  _109
REMARK   45  A    between atoms: _108  and  _111
REMARK   46  A    between atoms: _111  and  _112
REMARK   47  A    between atoms: _117  and  _118
REMARK   48  A    between atoms: _120  and  _122
REMARK   49  A    between atoms: _122  and  _123
REMARK   50  A    between atoms: _122  and  _125
REMARK   51  A    between atoms: _125  and  _126
REMARK   52  A    between atoms: _129  and  _131
REMARK   53  A    between atoms: _131  and  _132
REMARK   54  A    between atoms: _131  and  _134
REMARK   55  A    between atoms: _134  and  _135
REMARK   56  A    between atoms: _138  and  _140
REMARK   57  A    between atoms: _140  and  _141
REMARK   58  A    between atoms: _140  and  _143
REMARK   59  A    between atoms: _143  and  _144
REMARK   60  A    between atoms: _147  and  _149
REMARK   61  A    between atoms: _149  and  _150
REMARK   62  A    between atoms: _153  and  _155
REMARK   63  A    between atoms: _155  and  _156
REMARK   64  A    between atoms: _155  and  _158
REMARK   65  A    between atoms: _158  and  _159
REMARK   66  A    between atoms: _162  and  _164
REMARK   67  A    between atoms: _164  and  _165
REMARK   68  A    between atoms: _164  and  _167
REMARK   69  A    between atoms: _167  and  _168
REMARK   70  A    between atoms: _168  and  _169
REMARK   71  A    between atoms: _169  and  _170
REMARK   72  A    between atoms: _170  and  _171
REMARK   73  A    between atoms: _175  and  _177
REMARK   74  A    between atoms: _177  and  _178
REMARK   75  A    between atoms: _177  and  _180
REMARK   76  A    between atoms: _183  and  _185
REMARK   77  A    between atoms: _185  and  _186
REMARK   78  A    between atoms: _185  and  _188
REMARK   79  A    between atoms: _188  and  _189
REMARK   80  A    between atoms: _192  and  _194
REMARK   81  A    between atoms: _194  and  _195
REMARK   82  A    between atoms: _194  and  _197
REMARK   83  A    between atoms: _197  and  _198
REMARK   84  A    between atoms: _201  and  _203
REMARK   85  A    between atoms: _203  and  _204
REMARK   86  A    between atoms: _203  and  _206
REMARK   87  A    between atoms: _206  and  _207
REMARK   88  A    between atoms: _207  and  _208
REMARK   89  A    between atoms: _208  and  _209
REMARK   90  A    between atoms: _218  and  _220
REMARK   91  A    between atoms: _220  and  _221
REMARK   92  A    between atoms: _220  and  _223
REMARK   93  A    between atoms: _223  and  _224
REMARK   94  A    between atoms: _227  and  _229
REMARK   95  A    between atoms: _229  and  _230
REMARK   96  A    between atoms: _229  and  _232
REMARK   97  A    between atoms: _232  and  _233
REMARK   98  A    between atoms: _236  and  _238
REMARK   99  A    between atoms: _238  and  _239
REMARK  100  A    between atoms: _238  and  _241
REMARK  101  A    between atoms: _241  and  _242
REMARK  102  A    between atoms: _245  and  _247
REMARK  103  A    between atoms: _247  and  _248
REMARK  104  A    between atoms: _247  and  _250
REMARK  105  A    between atoms: _250  and  _251
REMARK  106  A    between atoms: _251  and  _252
REMARK  107  A    between atoms: _255  and  _257
REMARK  108  A    between atoms: _257  and  _258
REMARK  109  A    between atoms: _257  and  _260
REMARK  110  A    between atoms: _260  and  _261
REMARK  111  A    between atoms: _266  and  _267
REMARK  112  A    between atoms: _269  and  _271
REMARK  113  A    between atoms: _271  and  _272
REMARK  114  A    between atoms: _276  and  _277
REMARK  115  A    between atoms: _282  and  _284
REMARK  116  A    between atoms: _284  and  _285
REMARK  117  A    between atoms: _284  and  _287
REMARK  118  A    between atoms: _287  and  _288
REMARK  119  A    between atoms: _288  and  _289
REMARK  120  A    between atoms: _289  and  _290
REMARK  121  A    between atoms: _299  and  _301
REMARK  122  A    between atoms: _301  and  _302
REMARK  123  A    between atoms: _304  and  _306
REMARK  124  A    between atoms: _306  and  _307
REMARK  125  A    between atoms: _306  and  _309
REMARK  126  A    between atoms: _309  and  _310
REMARK  127  A    between atoms: _310  and  _311
REMARK  128  A    between atoms: _314  and  _316
REMARK  129  A    between atoms: _316  and  _317
REMARK  130  A    between atoms: _316  and  _319
REMARK  131  A    between atoms: _322  and  _324
REMARK  132  A    between atoms: _324  and  _325
REMARK  133  A    between atoms: _324  and  _327
REMARK  134  A    between atoms: _327  and  _328
REMARK  135  A    between atoms: _333  and  _334
REMARK  136  A    between atoms: _336  and  _338
REMARK  137  A    between atoms: _338  and  _339
REMARK  138  A    between atoms: _338  and  _341
REMARK  139  A    between atoms: _341  and  _342
REMARK  140  A    between atoms: _342  and  _343
REMARK  141  A    between atoms: _343  and  _344
REMARK  142  A    between atoms: _344  and  _345
REMARK  143  A    between atoms: _349  and  _351
REMARK  144  A    between atoms: _351  and  _352
REMARK  145  A    between atoms: _351  and  _354
REMARK  146  A    between atoms: _354  and  _355
REMARK  147  A    between atoms: _355  and  _356
REMARK  148  A    between atoms: _356  and  _357
REMARK  149  A    between atoms: _366  and  _368
REMARK  150  A    between atoms: _368  and  _369
REMARK  151  A    between atoms: _368  and  _371
REMARK  152  A    between atoms: _371  and  _372
REMARK  153  A    between atoms: _376  and  _377
REMARK  154  A    between atoms: _382  and  _384
REMARK  155  A    between atoms: _384  and  _385
REMARK  156  A    between atoms: _384  and  _387
REMARK  157  A    between atoms: _387  and  _388
REMARK  158  A    between atoms: _388  and  _389
REMARK  159  A    between atoms: _392  and  _394
REMARK  160  A    between atoms: _394  and  _395
REMARK  161  A    between atoms: _394  and  _397
REMARK  162  A    between atoms: _397  and  _398
REMARK  163  A    between atoms: _403  and  _405
REMARK  164  A    between atoms: _405  and  _406
REMARK  165  A    between atoms: _405  and  _408
REMARK  166  A    between atoms: _408  and  _409
REMARK  167  A    between atoms: _412  and  _414
REMARK  168  A    between atoms: _414  and  _415
REMARK  169  A    between atoms: _414  and  _417
REMARK  170  A    between atoms: _417  and  _418
REMARK  171  A    between atoms: _421  and  _423
REMARK  172  A    between atoms: _423  and  _424
REMARK  173  A    between atoms: _423  and  _426
REMARK  174  A    between atoms: _426  and  _427
REMARK  175  A    between atoms: _430  and  _432
REMARK  176  A    between atoms: _432  and  _433
REMARK  177  A    between atoms: _435  and  _437
REMARK  178  A    between atoms: _437  and  _438
REMARK  179  A    between atoms: _437  and  _440
REMARK  180  A    between atoms: _440  and  _441
REMARK  181  A    between atoms: _441  and  _442
REMARK  182  A    between atoms: _442  and  _443
REMARK  183  A    between atoms: _443  and  _444
REMARK  184  A    between atoms: _448  and  _450
REMARK  185  A    between atoms: _450  and  _451
REMARK  186  A    between atoms: _450  and  _453
REMARK  187  A    between atoms: _453  and  _454
REMARK  188  A    between atoms: _457  and  _459
REMARK  189  A    between atoms: _459  and  _460
REMARK  190  A    between atoms: _463  and  _465
REMARK  191  A    between atoms: _465  and  _466
REMARK  192  A    between atoms: _465  and  _468
REMARK  193  A    between atoms: _468  and  _469
REMARK  194  A    between atoms: _472  and  _474
REMARK  195  A    between atoms: _474  and  _475
REMARK  196  A    between atoms: _474  and  _477
REMARK  197  A    between atoms: _477  and  _478
REMARK  198  A    between atoms: _484  and  _486
REMARK  199  A    between atoms: _486  and  _487
REMARK  200  A    between atoms: _489  and  _491
REMARK  201  A    between atoms: _491  and  _492
REMARK  202  A    between atoms: _491  and  _494
REMARK  203  A    between atoms: _494  and  _495
REMARK  204  A    between atoms: _505  and  _507
REMARK  205  A    between atoms: _507  and  _508
REMARK  206  A    between atoms: _507  and  _510
REMARK  207  A    between atoms: _510  and  _511
REMARK  208  A    between atoms: _513  and  _515
REMARK  209  A    between atoms: _515  and  _516
REMARK  210  A    between atoms: _515  and  _518
REMARK  211  A    between atoms: _521  and  _523
REMARK  212  A    between atoms: _523  and  _524
REMARK  213  A    between atoms: _523  and  _526
REMARK  214  A    between atoms: _526  and  _527
REMARK  215  A    between atoms: _532  and  _534
REMARK  216  A    between atoms: _534  and  _535
REMARK  217  A    between atoms: _539  and  _540
REMARK                            x       y       z     vdW  Elec       q    Type
REMARK                         _______ _______ _______ _____ _____    ______ ____
ROOT
ATOM      1  O   HOH     1      -4.675  -0.896  -2.100  0.00  0.00    +0.000 OA
ENDROOT
TORSDOF 0
REMARK  Name = ../refined-set-2016/2wtv/2wtv_pocket.pdb
REMARK  217 active torsions:
REMARK  status: ('A' for Active; 'I' for Inactive)
REMARK    1  A    between atoms: _1  and  _3
REMARK    2  A    between atoms: _3  and  _4
REMARK    3  A    between atoms: _3  and  _6
REMARK    4  A    between atoms: _6  and  _7
REMARK    5  A    between atoms: _7  and  _8
REMARK    6  A    between atoms: _8  and  _9
REMARK    7  A    between atoms: _19  and  _20
REMARK    8  A    between atoms: _25  and  _27
REMARK    9  A    between atoms: _27  and  _28
REMARK   10  A    between atoms: _27  and  _30
REMARK   11  A    between atoms: _30  and  _31
REMARK   12  A    between atoms: _34  and  _36
REMARK   13  A    between atoms: _36  and  _37
REMARK   14  A    between atoms: _39  and  _41
REMARK   15  A    between atoms: _41  and  _42
REMARK   16  A    between atoms: _41  and  _44
REMARK   17  A    between atoms: _44  and  _45
REMARK   18  A    between atoms: _45  and  _46
REMARK   19  A    between atoms: _46  and  _47
REMARK   20  A    between atoms: _47  and  _48
REMARK   21  A    between atoms: _52  and  _54
REMARK   22  A    between atoms: _54  and  _55
REMARK   23  A    between atoms: _57  and  _59
REMARK   24  A    between atoms: _59  and  _60
REMARK   25  A    between atoms: _59  and  _62
REMARK   26  A    between atoms: _62  and  _63
REMARK   27  A    between atoms: _63  and  _64
REMARK   28  A    between atoms: _64  and  _65
REMARK   29  A    between atoms: _65  and  _66
REMARK   30  A    between atoms: _70  and  _72
REMARK   31  A    between atoms: _72  and  _73
REMARK   32  A    between atoms: _72  and  _75
REMARK   33  A    between atoms: _75  and  _76
REMARK   34  A    between atoms: _82  and  _84
REMARK   35  A    between atoms: _84  and  _85
REMARK   36  A    between atoms: _87  and  _89
REMARK   37  A    between atoms: _89  and  _90
REMARK   38  A    between atoms: _89  and  _92
REMARK   39  A    between atoms: _92  and  _93
REMARK   40  A    between atoms: _98  and  _100
REMARK   41  A    between atoms: _100  and  _101
REMARK   42  A    between atoms: _100  and  _103
REMARK   43  A    between atoms: _106  and  _108
REMARK   44  A    between atoms: _108  and  _109
REMARK   45  A    between atoms: _108  and  _111
REMARK   46  A    between atoms: _111  and  _112
REMARK   47  A    between atoms: _117  and  _118
REMARK   48  A    between atoms: _120  and  _122
REMARK   49  A    between atoms: _122  and  _123
REMARK   50  A    between atoms: _122  and  _125
REMARK   51  A    between atoms: _125  and  _126
REMARK   52  A    between atoms: _129  and  _131
REMARK   53  A    between atoms: _131  and  _132
REMARK   54  A    between atoms: _131  and  _134
REMARK   55  A    between atoms: _134  and  _135
REMARK   56  A    between atoms: _138  and  _140
REMARK   57  A    between atoms: _140  and  _141
REMARK   58  A    between atoms: _140  and  _143
REMARK   59  A    between atoms: _143  and  _144
REMARK   60  A    between atoms: _147  and  _149
REMARK   61  A    between atoms: _149  and  _150
REMARK   62  A    between atoms: _153  and  _155
REMARK   63  A    between atoms: _155  and  _156
REMARK   64  A    between atoms: _155  and  _158
REMARK   65  A    between atoms: _158  and  _159
REMARK   66  A    between atoms: _162  and  _164
REMARK   67  A    between atoms: _164  and  _165
REMARK   68  A    between atoms: _164  and  _167
REMARK   69  A    between atoms: _167  and  _168
REMARK   70  A    between atoms: _168  and  _169
REMARK   71  A    between atoms: _169  and  _170
REMARK   72  A    between atoms: _170  and  _171
REMARK   73  A    between atoms: _175  and  _177
REMARK   74  A    between atoms: _177  and  _178
REMARK   75  A    between atoms: _177  and  _180
REMARK   76  A    between atoms: _183  and  _185
REMARK   77  A    between atoms: _185  and  _186
REMARK   78  A    between atoms: _185  and  _188
REMARK   79  A    between atoms: _188  and  _189
REMARK   80  A    between atoms: _192  and  _194
REMARK   81  A    between atoms: _194  and  _195
REMARK   82  A    between atoms: _194  and  _197
REMARK   83  A    between atoms: _197  and  _198
REMARK   84  A    between atoms: _201  and  _203
REMARK   85  A    between atoms: _203  and  _204
REMARK   86  A    between atoms: _203  and  _206
REMARK   87  A    between atoms: _206  and  _207
REMARK   88  A    between atoms: _207  and  _208
REMARK   89  A    between atoms: _208  and  _209
REMARK   90  A    between atoms: _218  and  _220
REMARK   91  A    between atoms: _220  and  _221
REMARK   92  A    between atoms: _220  and  _223
REMARK   93  A    between atoms: _223  and  _224
REMARK   94  A    between atoms: _227  and  _229
REMARK   95  A    between atoms: _229  and  _230
REMARK   96  A    between atoms: _229  and  _232
REMARK   97  A    between atoms: _232  and  _233
REMARK   98  A    between atoms: _236  and  _238
REMARK   99  A    between atoms: _238  and  _239
REMARK  100  A    between atoms: _238  and  _241
REMARK  101  A    between atoms: _241  and  _242
REMARK  102  A    between atoms: _245  and  _247
REMARK  103  A    between atoms: _247  and  _248
REMARK  104  A    between atoms: _247  and  _250
REMARK  105  A    between atoms: _250  and  _251
REMARK  106  A    between atoms: _251  and  _252
REMARK  107  A    between atoms: _255  and  _257
REMARK  108  A    between atoms: _257  and  _258
REMARK  109  A    between atoms: _257  and  _260
REMARK  110  A    between atoms: _260  and  _261
REMARK  111  A    between atoms: _266  and  _267
REMARK  112  A    between atoms: _269  and  _271
REMARK  113  A    between atoms: _271  and  _272
REMARK  114  A    between atoms: _276  and  _277
REMARK  115  A    between atoms: _282  and  _284
REMARK  116  A    between atoms: _284  and  _285
REMARK  117  A    between atoms: _284  and  _287
REMARK  118  A    between atoms: _287  and  _288
REMARK  119  A    between atoms: _288  and  _289
REMARK  120  A    between atoms: _289  and  _290
REMARK  121  A    between atoms: _299  and  _301
REMARK  122  A    between atoms: _301  and  _302
REMARK  123  A    between atoms: _304  and  _306
REMARK  124  A    between atoms: _306  and  _307
REMARK  125  A    between atoms: _306  and  _309
REMARK  126  A    between atoms: _309  and  _310
REMARK  127  A    between atoms: _310  and  _311
REMARK  128  A    between atoms: _314  and  _316
REMARK  129  A    between atoms: _316  and  _317
REMARK  130  A    between atoms: _316  and  _319
REMARK  131  A    between atoms: _322  and  _324
REMARK  132  A    between atoms: _324  and  _325
REMARK  133  A    between atoms: _324  and  _327
REMARK  134  A    between atoms: _327  and  _328
REMARK  135  A    between atoms: _333  and  _334
REMARK  136  A    between atoms: _336  and  _338
REMARK  137  A    between atoms: _338  and  _339
REMARK  138  A    between atoms: _338  and  _341
REMARK  139  A    between atoms: _341  and  _342
REMARK  140  A    between atoms: _342  and  _343
REMARK  141  A    between atoms: _343  and  _344
REMARK  142  A    between atoms: _344  and  _345
REMARK  143  A    between atoms: _349  and  _351
REMARK  144  A    between atoms: _351  and  _352
REMARK  145  A    between atoms: _351  and  _354
REMARK  146  A    between atoms: _354  and  _355
REMARK  147  A    between atoms: _355  and  _356
REMARK  148  A    between atoms: _356  and  _357
REMARK  149  A    between atoms: _366  and  _368
REMARK  150  A    between atoms: _368  and  _369
REMARK  151  A    between atoms: _368  and  _371
REMARK  152  A    between atoms: _371  and  _372
REMARK  153  A    between atoms: _376  and  _377
REMARK  154  A    between atoms: _382  and  _384
REMARK  155  A    between atoms: _384  and  _385
REMARK  156  A    between atoms: _384  and  _387
REMARK  157  A    between atoms: _387  and  _388
REMARK  158  A    between atoms: _388  and  _389
REMARK  159  A    between atoms: _392  and  _394
REMARK  160  A    between atoms: _394  and  _395
REMARK  161  A    between atoms: _394  and  _397
REMARK  162  A    between atoms: _397  and  _398
REMARK  163  A    between atoms: _403  and  _405
REMARK  164  A    between atoms: _405  and  _406
REMARK  165  A    between atoms: _405  and  _408
REMARK  166  A    between atoms: _408  and  _409
REMARK  167  A    between atoms: _412  and  _414
REMARK  168  A    between atoms: _414  and  _415
REMARK  169  A    between atoms: _414  and  _417
REMARK  170  A    between atoms: _417  and  _418
REMARK  171  A    between atoms: _421  and  _423
REMARK  172  A    between atoms: _423  and  _424
REMARK  173  A    between atoms: _423  and  _426
REMARK  174  A    between atoms: _426  and  _427
REMARK  175  A    between atoms: _430  and  _432
REMARK  176  A    between atoms: _432  and  _433
REMARK  177  A    between atoms: _435  and  _437
REMARK  178  A    between atoms: _437  and  _438
REMARK  179  A    between atoms: _437  and  _440
REMARK  180  A    between atoms: _440  and  _441
REMARK  181  A    between atoms: _441  and  _442
REMARK  182  A    between atoms: _442  and  _443
REMARK  183  A    between atoms: _443  and  _444
REMARK  184  A    between atoms: _448  and  _450
REMARK  185  A    between atoms: _450  and  _451
REMARK  186  A    between atoms: _450  and  _453
REMARK  187  A    between atoms: _453  and  _454
REMARK  188  A    between atoms: _457  and  _459
REMARK  189  A    between atoms: _459  and  _460
REMARK  190  A    between atoms: _463  and  _465
REMARK  191  A    between atoms: _465  and  _466
REMARK  192  A    between atoms: _465  and  _468
REMARK  193  A    between atoms: _468  and  _469
REMARK  194  A    between atoms: _472  and  _474
REMARK  195  A    between atoms: _474  and  _475
REMARK  196  A    between atoms: _474  and  _477
REMARK  197  A    between atoms: _477  and  _478
REMARK  198  A    between atoms: _484  and  _486
REMARK  199  A    between atoms: _486  and  _487
REMARK  200  A    between atoms: _489  and  _491
REMARK  201  A    between atoms: _491  and  _492
REMARK  202  A    between atoms: _491  and  _494
REMARK  203  A    between atoms: _494  and  _495
REMARK  204  A    between atoms: _505  and  _507
REMARK  205  A    between atoms: _507  and  _508
REMARK  206  A    between atoms: _507  and  _510
REMARK  207  A    between atoms: _510  and  _511
REMARK  208  A    between atoms: _513  and  _515
REMARK  209  A    between atoms: _515  and  _516
REMARK  210  A    between atoms: _515  and  _518
REMARK  211  A    between atoms: _521  and  _523
REMARK  212  A    between atoms: _523  and  _524
REMARK  213  A    between atoms: _523  and  _526
REMARK  214  A    between atoms: _526  and  _527
REMARK  215  A    between atoms: _532  and  _534
REMARK  216  A    between atoms: _534  and  _535
REMARK  217  A    between atoms: _539  and  _540
REMARK                            x       y       z     vdW  Elec       q    Type
REMARK                         _______ _______ _______ _____ _____    ______ ____
ROOT
ATOM      1  O   HOH     1       3.752 -10.908 -12.043  0.00  0.00    +0.000 OA
ENDROOT
TORSDOF 0
REMARK  Name = ../refined-set-2016/2wtv/2wtv_pocket.pdb
REMARK  217 active torsions:
REMARK  status: ('A' for Active; 'I' for Inactive)
REMARK    1  A    between atoms: _1  and  _3
REMARK    2  A    between atoms: _3  and  _4
REMARK    3  A    between atoms: _3  and  _6
REMARK    4  A    between atoms: _6  and  _7
REMARK    5  A    between atoms: _7  and  _8
REMARK    6  A    between atoms: _8  and  _9
REMARK    7  A    between atoms: _19  and  _20
REMARK    8  A    between atoms: _25  and  _27
REMARK    9  A    between atoms: _27  and  _28
REMARK   10  A    between atoms: _27  and  _30
REMARK   11  A    between atoms: _30  and  _31
REMARK   12  A    between atoms: _34  and  _36
REMARK   13  A    between atoms: _36  and  _37
REMARK   14  A    between atoms: _39  and  _41
REMARK   15  A    between atoms: _41  and  _42
REMARK   16  A    between atoms: _41  and  _44
REMARK   17  A    between atoms: _44  and  _45
REMARK   18  A    between atoms: _45  and  _46
REMARK   19  A    between atoms: _46  and  _47
REMARK   20  A    between atoms: _47  and  _48
REMARK   21  A    between atoms: _52  and  _54
REMARK   22  A    between atoms: _54  and  _55
REMARK   23  A    between atoms: _57  and  _59
REMARK   24  A    between atoms: _59  and  _60
REMARK   25  A    between atoms: _59  and  _62
REMARK   26  A    between atoms: _62  and  _63
REMARK   27  A    between atoms: _63  and  _64
REMARK   28  A    between atoms: _64  and  _65
REMARK   29  A    between atoms: _65  and  _66
REMARK   30  A    between atoms: _70  and  _72
REMARK   31  A    between atoms: _72  and  _73
REMARK   32  A    between atoms: _72  and  _75
REMARK   33  A    between atoms: _75  and  _76
REMARK   34  A    between atoms: _82  and  _84
REMARK   35  A    between atoms: _84  and  _85
REMARK   36  A    between atoms: _87  and  _89
REMARK   37  A    between atoms: _89  and  _90
REMARK   38  A    between atoms: _89  and  _92
REMARK   39  A    between atoms: _92  and  _93
REMARK   40  A    between atoms: _98  and  _100
REMARK   41  A    between atoms: _100  and  _101
REMARK   42  A    between atoms: _100  and  _103
REMARK   43  A    between atoms: _106  and  _108
REMARK   44  A    between atoms: _108  and  _109
REMARK   45  A    between atoms: _108  and  _111
REMARK   46  A    between atoms: _111  and  _112
REMARK   47  A    between atoms: _117  and  _118
REMARK   48  A    between atoms: _120  and  _122
REMARK   49  A    between atoms: _122  and  _123
REMARK   50  A    between atoms: _122  and  _125
REMARK   51  A    between atoms: _125  and  _126
REMARK   52  A    between atoms: _129  and  _131
REMARK   53  A    between atoms: _131  and  _132
REMARK   54  A    between atoms: _131  and  _134
REMARK   55  A    between atoms: _134  and  _135
REMARK   56  A    between atoms: _138  and  _140
REMARK   57  A    between atoms: _140  and  _141
REMARK   58  A    between atoms: _140  and  _143
REMARK   59  A    between atoms: _143  and  _144
REMARK   60  A    between atoms: _147  and  _149
REMARK   61  A    between atoms: _149  and  _150
REMARK   62  A    between atoms: _153  and  _155
REMARK   63  A    between atoms: _155  and  _156
REMARK   64  A    between atoms: _155  and  _158
REMARK   65  A    between atoms: _158  and  _159
REMARK   66  A    between atoms: _162  and  _164
REMARK   67  A    between atoms: _164  and  _165
REMARK   68  A    between atoms: _164  and  _167
REMARK   69  A    between atoms: _167  and  _168
REMARK   70  A    between atoms: _168  and  _169
REMARK   71  A    between atoms: _169  and  _170
REMARK   72  A    between atoms: _170  and  _171
REMARK   73  A    between atoms: _175  and  _177
REMARK   74  A    between atoms: _177  and  _178
REMARK   75  A    between atoms: _177  and  _180
REMARK   76  A    between atoms: _183  and  _185
REMARK   77  A    between atoms: _185  and  _186
REMARK   78  A    between atoms: _185  and  _188
REMARK   79  A    between atoms: _188  and  _189
REMARK   80  A    between atoms: _192  and  _194
REMARK   81  A    between atoms: _194  and  _195
REMARK   82  A    between atoms: _194  and  _197
REMARK   83  A    between atoms: _197  and  _198
REMARK   84  A    between atoms: _201  and  _203
REMARK   85  A    between atoms: _203  and  _204
REMARK   86  A    between atoms: _203  and  _206
REMARK   87  A    between atoms: _206  and  _207
REMARK   88  A    between atoms: _207  and  _208
REMARK   89  A    between atoms: _208  and  _209
REMARK   90  A    between atoms: _218  and  _220
REMARK   91  A    between atoms: _220  and  _221
REMARK   92  A    between atoms: _220  and  _223
REMARK   93  A    between atoms: _223  and  _224
REMARK   94  A    between atoms: _227  and  _229
REMARK   95  A    between atoms: _229  and  _230
REMARK   96  A    between atoms: _229  and  _232
REMARK   97  A    between atoms: _232  and  _233
REMARK   98  A    between atoms: _236  and  _238
REMARK   99  A    between atoms: _238  and  _239
REMARK  100  A    between atoms: _238  and  _241
REMARK  101  A    between atoms: _241  and  _242
REMARK  102  A    between atoms: _245  and  _247
REMARK  103  A    between atoms: _247  and  _248
REMARK  104  A    between atoms: _247  and  _250
REMARK  105  A    between atoms: _250  and  _251
REMARK  106  A    between atoms: _251  and  _252
REMARK  107  A    between atoms: _255  and  _257
REMARK  108  A    between atoms: _257  and  _258
REMARK  109  A    between atoms: _257  and  _260
REMARK  110  A    between atoms: _260  and  _261
REMARK  111  A    between atoms: _266  and  _267
REMARK  112  A    between atoms: _269  and  _271
REMARK  113  A    between atoms: _271  and  _272
REMARK  114  A    between atoms: _276  and  _277
REMARK  115  A    between atoms: _282  and  _284
REMARK  116  A    between atoms: _284  and  _285
REMARK  117  A    between atoms: _284  and  _287
REMARK  118  A    between atoms: _287  and  _288
REMARK  119  A    between atoms: _288  and  _289
REMARK  120  A    between atoms: _289  and  _290
REMARK  121  A    between atoms: _299  and  _301
REMARK  122  A    between atoms: _301  and  _302
REMARK  123  A    between atoms: _304  and  _306
REMARK  124  A    between atoms: _306  and  _307
REMARK  125  A    between atoms: _306  and  _309
REMARK  126  A    between atoms: _309  and  _310
REMARK  127  A    between atoms: _310  and  _311
REMARK  128  A    between atoms: _314  and  _316
REMARK  129  A    between atoms: _316  and  _317
REMARK  130  A    between atoms: _316  and  _319
REMARK  131  A    between atoms: _322  and  _324
REMARK  132  A    between atoms: _324  and  _325
REMARK  133  A    between atoms: _324  and  _327
REMARK  134  A    between atoms: _327  and  _328
REMARK  135  A    between atoms: _333  and  _334
REMARK  136  A    between atoms: _336  and  _338
REMARK  137  A    between atoms: _338  and  _339
REMARK  138  A    between atoms: _338  and  _341
REMARK  139  A    between atoms: _341  and  _342
REMARK  140  A    between atoms: _342  and  _343
REMARK  141  A    between atoms: _343  and  _344
REMARK  142  A    between atoms: _344  and  _345
REMARK  143  A    between atoms: _349  and  _351
REMARK  144  A    between atoms: _351  and  _352
REMARK  145  A    between atoms: _351  and  _354
REMARK  146  A    between atoms: _354  and  _355
REMARK  147  A    between atoms: _355  and  _356
REMARK  148  A    between atoms: _356  and  _357
REMARK  149  A    between atoms: _366  and  _368
REMARK  150  A    between atoms: _368  and  _369
REMARK  151  A    between atoms: _368  and  _371
REMARK  152  A    between atoms: _371  and  _372
REMARK  153  A    between atoms: _376  and  _377
REMARK  154  A    between atoms: _382  and  _384
REMARK  155  A    between atoms: _384  and  _385
REMARK  156  A    between atoms: _384  and  _387
REMARK  157  A    between atoms: _387  and  _388
REMARK  158  A    between atoms: _388  and  _389
REMARK  159  A    between atoms: _392  and  _394
REMARK  160  A    between atoms: _394  and  _395
REMARK  161  A    between atoms: _394  and  _397
REMARK  162  A    between atoms: _397  and  _398
REMARK  163  A    between atoms: _403  and  _405
REMARK  164  A    between atoms: _405  and  _406
REMARK  165  A    between atoms: _405  and  _408
REMARK  166  A    between atoms: _408  and  _409
REMARK  167  A    between atoms: _412  and  _414
REMARK  168  A    between atoms: _414  and  _415
REMARK  169  A    between atoms: _414  and  _417
REMARK  170  A    between atoms: _417  and  _418
REMARK  171  A    between atoms: _421  and  _423
REMARK  172  A    between atoms: _423  and  _424
REMARK  173  A    between atoms: _423  and  _426
REMARK  174  A    between atoms: _426  and  _427
REMARK  175  A    between atoms: _430  and  _432
REMARK  176  A    between atoms: _432  and  _433
REMARK  177  A    between atoms: _435  and  _437
REMARK  178  A    between atoms: _437  and  _438
REMARK  179  A    between atoms: _437  and  _440
REMARK  180  A    between atoms: _440  and  _441
REMARK  181  A    between atoms: _441  and  _442
REMARK  182  A    between atoms: _442  and  _443
REMARK  183  A    between atoms: _443  and  _444
REMARK  184  A    between atoms: _448  and  _450
REMARK  185  A    between atoms: _450  and  _451
REMARK  186  A    between atoms: _450  and  _453
REMARK  187  A    between atoms: _453  and  _454
REMARK  188  A    between atoms: _457  and  _459
REMARK  189  A    between atoms: _459  and  _460
REMARK  190  A    between atoms: _463  and  _465
REMARK  191  A    between atoms: _465  and  _466
REMARK  192  A    between atoms: _465  and  _468
REMARK  193  A    between atoms: _468  and  _469
REMARK  194  A    between atoms: _472  and  _474
REMARK  195  A    between atoms: _474  and  _475
REMARK  196  A    between atoms: _474  and  _477
REMARK  197  A    between atoms: _477  and  _478
REMARK  198  A    between atoms: _484  and  _486
REMARK  199  A    between atoms: _486  and  _487
REMARK  200  A    between atoms: _489  and  _491
REMARK  201  A    between atoms: _491  and  _492
REMARK  202  A    between atoms: _491  and  _494
REMARK  203  A    between atoms: _494  and  _495
REMARK  204  A    between atoms: _505  and  _507
REMARK  205  A    between atoms: _507  and  _508
REMARK  206  A    between atoms: _507  and  _510
REMARK  207  A    between atoms: _510  and  _511
REMARK  208  A    between atoms: _513  and  _515
REMARK  209  A    between atoms: _515  and  _516
REMARK  210  A    between atoms: _515  and  _518
REMARK  211  A    between atoms: _521  and  _523
REMARK  212  A    between atoms: _523  and  _524
REMARK  213  A    between atoms: _523  and  _526
REMARK  214  A    between atoms: _526  and  _527
REMARK  215  A    between atoms: _532  and  _534
REMARK  216  A    between atoms: _534  and  _535
REMARK  217  A    between atoms: _539  and  _540
REMARK                            x       y       z     vdW  Elec       q    Type
REMARK                         _______ _______ _______ _____ _____    ______ ____
ROOT
ATOM      1  O   HOH     1      -5.974 -17.202  -6.232  0.00  0.00    +0.000 OA
ENDROOT
TORSDOF 0
REMARK  Name = ../refined-set-2016/2wtv/2wtv_pocket.pdb
REMARK  217 active torsions:
REMARK  status: ('A' for Active; 'I' for Inactive)
REMARK    1  A    between atoms: _1  and  _3
REMARK    2  A    between atoms: _3  and  _4
REMARK    3  A    between atoms: _3  and  _6
REMARK    4  A    between atoms: _6  and  _7
REMARK    5  A    between atoms: _7  and  _8
REMARK    6  A    between atoms: _8  and  _9
REMARK    7  A    between atoms: _19  and  _20
REMARK    8  A    between atoms: _25  and  _27
REMARK    9  A    between atoms: _27  and  _28
REMARK   10  A    between atoms: _27  and  _30
REMARK   11  A    between atoms: _30  and  _31
REMARK   12  A    between atoms: _34  and  _36
REMARK   13  A    between atoms: _36  and  _37
REMARK   14  A    between atoms: _39  and  _41
REMARK   15  A    between atoms: _41  and  _42
REMARK   16  A    between atoms: _41  and  _44
REMARK   17  A    between atoms: _44  and  _45
REMARK   18  A    between atoms: _45  and  _46
REMARK   19  A    between atoms: _46  and  _47
REMARK   20  A    between atoms: _47  and  _48
REMARK   21  A    between atoms: _52  and  _54
REMARK   22  A    between atoms: _54  and  _55
REMARK   23  A    between atoms: _57  and  _59
REMARK   24  A    between atoms: _59  and  _60
REMARK   25  A    between atoms: _59  and  _62
REMARK   26  A    between atoms: _62  and  _63
REMARK   27  A    between atoms: _63  and  _64
REMARK   28  A    between atoms: _64  and  _65
REMARK   29  A    between atoms: _65  and  _66
REMARK   30  A    between atoms: _70  and  _72
REMARK   31  A    between atoms: _72  and  _73
REMARK   32  A    between atoms: _72  and  _75
REMARK   33  A    between atoms: _75  and  _76
REMARK   34  A    between atoms: _82  and  _84
REMARK   35  A    between atoms: _84  and  _85
REMARK   36  A    between atoms: _87  and  _89
REMARK   37  A    between atoms: _89  and  _90
REMARK   38  A    between atoms: _89  and  _92
REMARK   39  A    between atoms: _92  and  _93
REMARK   40  A    between atoms: _98  and  _100
REMARK   41  A    between atoms: _100  and  _101
REMARK   42  A    between atoms: _100  and  _103
REMARK   43  A    between atoms: _106  and  _108
REMARK   44  A    between atoms: _108  and  _109
REMARK   45  A    between atoms: _108  and  _111
REMARK   46  A    between atoms: _111  and  _112
REMARK   47  A    between atoms: _117  and  _118
REMARK   48  A    between atoms: _120  and  _122
REMARK   49  A    between atoms: _122  and  _123
REMARK   50  A    between atoms: _122  and  _125
REMARK   51  A    between atoms: _125  and  _126
REMARK   52  A    between atoms: _129  and  _131
REMARK   53  A    between atoms: _131  and  _132
REMARK   54  A    between atoms: _131  and  _134
REMARK   55  A    between atoms: _134  and  _135
REMARK   56  A    between atoms: _138  and  _140
REMARK   57  A    between atoms: _140  and  _141
REMARK   58  A    between atoms: _140  and  _143
REMARK   59  A    between atoms: _143  and  _144
REMARK   60  A    between atoms: _147  and  _149
REMARK   61  A    between atoms: _149  and  _150
REMARK   62  A    between atoms: _153  and  _155
REMARK   63  A    between atoms: _155  and  _156
REMARK   64  A    between atoms: _155  and  _158
REMARK   65  A    between atoms: _158  and  _159
REMARK   66  A    between atoms: _162  and  _164
REMARK   67  A    between atoms: _164  and  _165
REMARK   68  A    between atoms: _164  and  _167
REMARK   69  A    between atoms: _167  and  _168
REMARK   70  A    between atoms: _168  and  _169
REMARK   71  A    between atoms: _169  and  _170
REMARK   72  A    between atoms: _170  and  _171
REMARK   73  A    between atoms: _175  and  _177
REMARK   74  A    between atoms: _177  and  _178
REMARK   75  A    between atoms: _177  and  _180
REMARK   76  A    between atoms: _183  and  _185
REMARK   77  A    between atoms: _185  and  _186
REMARK   78  A    between atoms: _185  and  _188
REMARK   79  A    between atoms: _188  and  _189
REMARK   80  A    between atoms: _192  and  _194
REMARK   81  A    between atoms: _194  and  _195
REMARK   82  A    between atoms: _194  and  _197
REMARK   83  A    between atoms: _197  and  _198
REMARK   84  A    between atoms: _201  and  _203
REMARK   85  A    between atoms: _203  and  _204
REMARK   86  A    between atoms: _203  and  _206
REMARK   87  A    between atoms: _206  and  _207
REMARK   88  A    between atoms: _207  and  _208
REMARK   89  A    between atoms: _208  and  _209
REMARK   90  A    between atoms: _218  and  _220
REMARK   91  A    between atoms: _220  and  _221
REMARK   92  A    between atoms: _220  and  _223
REMARK   93  A    between atoms: _223  and  _224
REMARK   94  A    between atoms: _227  and  _229
REMARK   95  A    between atoms: _229  and  _230
REMARK   96  A    between atoms: _229  and  _232
REMARK   97  A    between atoms: _232  and  _233
REMARK   98  A    between atoms: _236  and  _238
REMARK   99  A    between atoms: _238  and  _239
REMARK  100  A    between atoms: _238  and  _241
REMARK  101  A    between atoms: _241  and  _242
REMARK  102  A    between atoms: _245  and  _247
REMARK  103  A    between atoms: _247  and  _248
REMARK  104  A    between atoms: _247  and  _250
REMARK  105  A    between atoms: _250  and  _251
REMARK  106  A    between atoms: _251  and  _252
REMARK  107  A    between atoms: _255  and  _257
REMARK  108  A    between atoms: _257  and  _258
REMARK  109  A    between atoms: _257  and  _260
REMARK  110  A    between atoms: _260  and  _261
REMARK  111  A    between atoms: _266  and  _267
REMARK  112  A    between atoms: _269  and  _271
REMARK  113  A    between atoms: _271  and  _272
REMARK  114  A    between atoms: _276  and  _277
REMARK  115  A    between atoms: _282  and  _284
REMARK  116  A    between atoms: _284  and  _285
REMARK  117  A    between atoms: _284  and  _287
REMARK  118  A    between atoms: _287  and  _288
REMARK  119  A    between atoms: _288  and  _289
REMARK  120  A    between atoms: _289  and  _290
REMARK  121  A    between atoms: _299  and  _301
REMARK  122  A    between atoms: _301  and  _302
REMARK  123  A    between atoms: _304  and  _306
REMARK  124  A    between atoms: _306  and  _307
REMARK  125  A    between atoms: _306  and  _309
REMARK  126  A    between atoms: _309  and  _310
REMARK  127  A    between atoms: _310  and  _311
REMARK  128  A    between atoms: _314  and  _316
REMARK  129  A    between atoms: _316  and  _317
REMARK  130  A    between atoms: _316  and  _319
REMARK  131  A    between atoms: _322  and  _324
REMARK  132  A    between atoms: _324  and  _325
REMARK  133  A    between atoms: _324  and  _327
REMARK  134  A    between atoms: _327  and  _328
REMARK  135  A    between atoms: _333  and  _334
REMARK  136  A    between atoms: _336  and  _338
REMARK  137  A    between atoms: _338  and  _339
REMARK  138  A    between atoms: _338  and  _341
REMARK  139  A    between atoms: _341  and  _342
REMARK  140  A    between atoms: _342  and  _343
REMARK  141  A    between atoms: _343  and  _344
REMARK  142  A    between atoms: _344  and  _345
REMARK  143  A    between atoms: _349  and  _351
REMARK  144  A    between atoms: _351  and  _352
REMARK  145  A    between atoms: _351  and  _354
REMARK  146  A    between atoms: _354  and  _355
REMARK  147  A    between atoms: _355  and  _356
REMARK  148  A    between atoms: _356  and  _357
REMARK  149  A    between atoms: _366  and  _368
REMARK  150  A    between atoms: _368  and  _369
REMARK  151  A    between atoms: _368  and  _371
REMARK  152  A    between atoms: _371  and  _372
REMARK  153  A    between atoms: _376  and  _377
REMARK  154  A    between atoms: _382  and  _384
REMARK  155  A    between atoms: _384  and  _385
REMARK  156  A    between atoms: _384  and  _387
REMARK  157  A    between atoms: _387  and  _388
REMARK  158  A    between atoms: _388  and  _389
REMARK  159  A    between atoms: _392  and  _394
REMARK  160  A    between atoms: _394  and  _395
REMARK  161  A    between atoms: _394  and  _397
REMARK  162  A    between atoms: _397  and  _398
REMARK  163  A    between atoms: _403  and  _405
REMARK  164  A    between atoms: _405  and  _406
REMARK  165  A    between atoms: _405  and  _408
REMARK  166  A    between atoms: _408  and  _409
REMARK  167  A    between atoms: _412  and  _414
REMARK  168  A    between atoms: _414  and  _415
REMARK  169  A    between atoms: _414  and  _417
REMARK  170  A    between atoms: _417  and  _418
REMARK  171  A    between atoms: _421  and  _423
REMARK  172  A    between atoms: _423  and  _424
REMARK  173  A    between atoms: _423  and  _426
REMARK  174  A    between atoms: _426  and  _427
REMARK  175  A    between atoms: _430  and  _432
REMARK  176  A    between atoms: _432  and  _433
REMARK  177  A    between atoms: _435  and  _437
REMARK  178  A    between atoms: _437  and  _438
REMARK  179  A    between atoms: _437  and  _440
REMARK  180  A    between atoms: _440  and  _441
REMARK  181  A    between atoms: _441  and  _442
REMARK  182  A    between atoms: _442  and  _443
REMARK  183  A    between atoms: _443  and  _444
REMARK  184  A    between atoms: _448  and  _450
REMARK  185  A    between atoms: _450  and  _451
REMARK  186  A    between atoms: _450  and  _453
REMARK  187  A    between atoms: _453  and  _454
REMARK  188  A    between atoms: _457  and  _459
REMARK  189  A    between atoms: _459  and  _460
REMARK  190  A    between atoms: _463  and  _465
REMARK  191  A    between atoms: _465  and  _466
REMARK  192  A    between atoms: _465  and  _468
REMARK  193  A    between atoms: _468  and  _469
REMARK  194  A    between atoms: _472  and  _474
REMARK  195  A    between atoms: _474  and  _475
REMARK  196  A    between atoms: _474  and  _477
REMARK  197  A    between atoms: _477  and  _478
REMARK  198  A    between atoms: _484  and  _486
REMARK  199  A    between atoms: _486  and  _487
REMARK  200  A    between atoms: _489  and  _491
REMARK  201  A    between atoms: _491  and  _492
REMARK  202  A    between atoms: _491  and  _494
REMARK  203  A    between atoms: _494  and  _495
REMARK  204  A    between atoms: _505  and  _507
REMARK  205  A    between atoms: _507  and  _508
REMARK  206  A    between atoms: _507  and  _510
REMARK  207  A    between atoms: _510  and  _511
REMARK  208  A    between atoms: _513  and  _515
REMARK  209  A    between atoms: _515  and  _516
REMARK  210  A    between atoms: _515  and  _518
REMARK  211  A    between atoms: _521  and  _523
REMARK  212  A    between atoms: _523  and  _524
REMARK  213  A    between atoms: _523  and  _526
REMARK  214  A    between atoms: _526  and  _527
REMARK  215  A    between atoms: _532  and  _534
REMARK  216  A    between atoms: _534  and  _535
REMARK  217  A    between atoms: _539  and  _540
REMARK                            x       y       z     vdW  Elec       q    Type
REMARK                         _______ _______ _______ _____ _____    ______ ____
ROOT
ATOM      1  O   HOH     1      -3.752  -3.698   2.667  0.00  0.00    +0.000 OA
ENDROOT
TORSDOF 0
REMARK  Name = ../refined-set-2016/2wtv/2wtv_pocket.pdb
REMARK  217 active torsions:
REMARK  status: ('A' for Active; 'I' for Inactive)
REMARK    1  A    between atoms: _1  and  _3
REMARK    2  A    between atoms: _3  and  _4
REMARK    3  A    between atoms: _3  and  _6
REMARK    4  A    between atoms: _6  and  _7
REMARK    5  A    between atoms: _7  and  _8
REMARK    6  A    between atoms: _8  and  _9
REMARK    7  A    between atoms: _19  and  _20
REMARK    8  A    between atoms: _25  and  _27
REMARK    9  A    between atoms: _27  and  _28
REMARK   10  A    between atoms: _27  and  _30
REMARK   11  A    between atoms: _30  and  _31
REMARK   12  A    between atoms: _34  and  _36
REMARK   13  A    between atoms: _36  and  _37
REMARK   14  A    between atoms: _39  and  _41
REMARK   15  A    between atoms: _41  and  _42
REMARK   16  A    between atoms: _41  and  _44
REMARK   17  A    between atoms: _44  and  _45
REMARK   18  A    between atoms: _45  and  _46
REMARK   19  A    between atoms: _46  and  _47
REMARK   20  A    between atoms: _47  and  _48
REMARK   21  A    between atoms: _52  and  _54
REMARK   22  A    between atoms: _54  and  _55
REMARK   23  A    between atoms: _57  and  _59
REMARK   24  A    between atoms: _59  and  _60
REMARK   25  A    between atoms: _59  and  _62
REMARK   26  A    between atoms: _62  and  _63
REMARK   27  A    between atoms: _63  and  _64
REMARK   28  A    between atoms: _64  and  _65
REMARK   29  A    between atoms: _65  and  _66
REMARK   30  A    between atoms: _70  and  _72
REMARK   31  A    between atoms: _72  and  _73
REMARK   32  A    between atoms: _72  and  _75
REMARK   33  A    between atoms: _75  and  _76
REMARK   34  A    between atoms: _82  and  _84
REMARK   35  A    between atoms: _84  and  _85
REMARK   36  A    between atoms: _87  and  _89
REMARK   37  A    between atoms: _89  and  _90
REMARK   38  A    between atoms: _89  and  _92
REMARK   39  A    between atoms: _92  and  _93
REMARK   40  A    between atoms: _98  and  _100
REMARK   41  A    between atoms: _100  and  _101
REMARK   42  A    between atoms: _100  and  _103
REMARK   43  A    between atoms: _106  and  _108
REMARK   44  A    between atoms: _108  and  _109
REMARK   45  A    between atoms: _108  and  _111
REMARK   46  A    between atoms: _111  and  _112
REMARK   47  A    between atoms: _117  and  _118
REMARK   48  A    between atoms: _120  and  _122
REMARK   49  A    between atoms: _122  and  _123
REMARK   50  A    between atoms: _122  and  _125
REMARK   51  A    between atoms: _125  and  _126
REMARK   52  A    between atoms: _129  and  _131
REMARK   53  A    between atoms: _131  and  _132
REMARK   54  A    between atoms: _131  and  _134
REMARK   55  A    between atoms: _134  and  _135
REMARK   56  A    between atoms: _138  and  _140
REMARK   57  A    between atoms: _140  and  _141
REMARK   58  A    between atoms: _140  and  _143
REMARK   59  A    between atoms: _143  and  _144
REMARK   60  A    between atoms: _147  and  _149
REMARK   61  A    between atoms: _149  and  _150
REMARK   62  A    between atoms: _153  and  _155
REMARK   63  A    between atoms: _155  and  _156
REMARK   64  A    between atoms: _155  and  _158
REMARK   65  A    between atoms: _158  and  _159
REMARK   66  A    between atoms: _162  and  _164
REMARK   67  A    between atoms: _164  and  _165
REMARK   68  A    between atoms: _164  and  _167
REMARK   69  A    between atoms: _167  and  _168
REMARK   70  A    between atoms: _168  and  _169
REMARK   71  A    between atoms: _169  and  _170
REMARK   72  A    between atoms: _170  and  _171
REMARK   73  A    between atoms: _175  and  _177
REMARK   74  A    between atoms: _177  and  _178
REMARK   75  A    between atoms: _177  and  _180
REMARK   76  A    between atoms: _183  and  _185
REMARK   77  A    between atoms: _185  and  _186
REMARK   78  A    between atoms: _185  and  _188
REMARK   79  A    between atoms: _188  and  _189
REMARK   80  A    between atoms: _192  and  _194
REMARK   81  A    between atoms: _194  and  _195
REMARK   82  A    between atoms: _194  and  _197
REMARK   83  A    between atoms: _197  and  _198
REMARK   84  A    between atoms: _201  and  _203
REMARK   85  A    between atoms: _203  and  _204
REMARK   86  A    between atoms: _203  and  _206
REMARK   87  A    between atoms: _206  and  _207
REMARK   88  A    between atoms: _207  and  _208
REMARK   89  A    between atoms: _208  and  _209
REMARK   90  A    between atoms: _218  and  _220
REMARK   91  A    between atoms: _220  and  _221
REMARK   92  A    between atoms: _220  and  _223
REMARK   93  A    between atoms: _223  and  _224
REMARK   94  A    between atoms: _227  and  _229
REMARK   95  A    between atoms: _229  and  _230
REMARK   96  A    between atoms: _229  and  _232
REMARK   97  A    between atoms: _232  and  _233
REMARK   98  A    between atoms: _236  and  _238
REMARK   99  A    between atoms: _238  and  _239
REMARK  100  A    between atoms: _238  and  _241
REMARK  101  A    between atoms: _241  and  _242
REMARK  102  A    between atoms: _245  and  _247
REMARK  103  A    between atoms: _247  and  _248
REMARK  104  A    between atoms: _247  and  _250
REMARK  105  A    between atoms: _250  and  _251
REMARK  106  A    between atoms: _251  and  _252
REMARK  107  A    between atoms: _255  and  _257
REMARK  108  A    between atoms: _257  and  _258
REMARK  109  A    between atoms: _257  and  _260
REMARK  110  A    between atoms: _260  and  _261
REMARK  111  A    between atoms: _266  and  _267
REMARK  112  A    between atoms: _269  and  _271
REMARK  113  A    between atoms: _271  and  _272
REMARK  114  A    between atoms: _276  and  _277
REMARK  115  A    between atoms: _282  and  _284
REMARK  116  A    between atoms: _284  and  _285
REMARK  117  A    between atoms: _284  and  _287
REMARK  118  A    between atoms: _287  and  _288
REMARK  119  A    between atoms: _288  and  _289
REMARK  120  A    between atoms: _289  and  _290
REMARK  121  A    between atoms: _299  and  _301
REMARK  122  A    between atoms: _301  and  _302
REMARK  123  A    between atoms: _304  and  _306
REMARK  124  A    between atoms: _306  and  _307
REMARK  125  A    between atoms: _306  and  _309
REMARK  126  A    between atoms: _309  and  _310
REMARK  127  A    between atoms: _310  and  _311
REMARK  128  A    between atoms: _314  and  _316
REMARK  129  A    between atoms: _316  and  _317
REMARK  130  A    between atoms: _316  and  _319
REMARK  131  A    between atoms: _322  and  _324
REMARK  132  A    between atoms: _324  and  _325
REMARK  133  A    between atoms: _324  and  _327
REMARK  134  A    between atoms: _327  and  _328
REMARK  135  A    between atoms: _333  and  _334
REMARK  136  A    between atoms: _336  and  _338
REMARK  137  A    between atoms: _338  and  _339
REMARK  138  A    between atoms: _338  and  _341
REMARK  139  A    between atoms: _341  and  _342
REMARK  140  A    between atoms: _342  and  _343
REMARK  141  A    between atoms: _343  and  _344
REMARK  142  A    between atoms: _344  and  _345
REMARK  143  A    between atoms: _349  and  _351
REMARK  144  A    between atoms: _351  and  _352
REMARK  145  A    between atoms: _351  and  _354
REMARK  146  A    between atoms: _354  and  _355
REMARK  147  A    between atoms: _355  and  _356
REMARK  148  A    between atoms: _356  and  _357
REMARK  149  A    between atoms: _366  and  _368
REMARK  150  A    between atoms: _368  and  _369
REMARK  151  A    between atoms: _368  and  _371
REMARK  152  A    between atoms: _371  and  _372
REMARK  153  A    between atoms: _376  and  _377
REMARK  154  A    between atoms: _382  and  _384
REMARK  155  A    between atoms: _384  and  _385
REMARK  156  A    between atoms: _384  and  _387
REMARK  157  A    between atoms: _387  and  _388
REMARK  158  A    between atoms: _388  and  _389
REMARK  159  A    between atoms: _392  and  _394
REMARK  160  A    between atoms: _394  and  _395
REMARK  161  A    between atoms: _394  and  _397
REMARK  162  A    between atoms: _397  and  _398
REMARK  163  A    between atoms: _403  and  _405
REMARK  164  A    between atoms: _405  and  _406
REMARK  165  A    between atoms: _405  and  _408
REMARK  166  A    between atoms: _408  and  _409
REMARK  167  A    between atoms: _412  and  _414
REMARK  168  A    between atoms: _414  and  _415
REMARK  169  A    between atoms: _414  and  _417
REMARK  170  A    between atoms: _417  and  _418
REMARK  171  A    between atoms: _421  and  _423
REMARK  172  A    between atoms: _423  and  _424
REMARK  173  A    between atoms: _423  and  _426
REMARK  174  A    between atoms: _426  and  _427
REMARK  175  A    between atoms: _430  and  _432
REMARK  176  A    between atoms: _432  and  _433
REMARK  177  A    between atoms: _435  and  _437
REMARK  178  A    between atoms: _437  and  _438
REMARK  179  A    between atoms: _437  and  _440
REMARK  180  A    between atoms: _440  and  _441
REMARK  181  A    between atoms: _441  and  _442
REMARK  182  A    between atoms: _442  and  _443
REMARK  183  A    between atoms: _443  and  _444
REMARK  184  A    between atoms: _448  and  _450
REMARK  185  A    between atoms: _450  and  _451
REMARK  186  A    between atoms: _450  and  _453
REMARK  187  A    between atoms: _453  and  _454
REMARK  188  A    between atoms: _457  and  _459
REMARK  189  A    between atoms: _459  and  _460
REMARK  190  A    between atoms: _463  and  _465
REMARK  191  A    between atoms: _465  and  _466
REMARK  192  A    between atoms: _465  and  _468
REMARK  193  A    between atoms: _468  and  _469
REMARK  194  A    between atoms: _472  and  _474
REMARK  195  A    between atoms: _474  and  _475
REMARK  196  A    between atoms: _474  and  _477
REMARK  197  A    between atoms: _477  and  _478
REMARK  198  A    between atoms: _484  and  _486
REMARK  199  A    between atoms: _486  and  _487
REMARK  200  A    between atoms: _489  and  _491
REMARK  201  A    between atoms: _491  and  _492
REMARK  202  A    between atoms: _491  and  _494
REMARK  203  A    between atoms: _494  and  _495
REMARK  204  A    between atoms: _505  and  _507
REMARK  205  A    between atoms: _507  and  _508
REMARK  206  A    between atoms: _507  and  _510
REMARK  207  A    between atoms: _510  and  _511
REMARK  208  A    between atoms: _513  and  _515
REMARK  209  A    between atoms: _515  and  _516
REMARK  210  A    between atoms: _515  and  _518
REMARK  211  A    between atoms: _521  and  _523
REMARK  212  A    between atoms: _523  and  _524
REMARK  213  A    between atoms: _523  and  _526
REMARK  214  A    between atoms: _526  and  _527
REMARK  215  A    between atoms: _532  and  _534
REMARK  216  A    between atoms: _534  and  _535
REMARK  217  A    between atoms: _539  and  _540
REMARK                            x       y       z     vdW  Elec       q    Type
REMARK                         _______ _______ _______ _____ _____    ______ ____
ROOT
ATOM      1  O   HOH     1      -3.553  -0.083   0.771  0.00  0.00    +0.000 OA
ENDROOT
TORSDOF 0
REMARK  Name = ../refined-set-2016/2wtv/2wtv_pocket.pdb
REMARK  217 active torsions:
REMARK  status: ('A' for Active; 'I' for Inactive)
REMARK    1  A    between atoms: _1  and  _3
REMARK    2  A    between atoms: _3  and  _4
REMARK    3  A    between atoms: _3  and  _6
REMARK    4  A    between atoms: _6  and  _7
REMARK    5  A    between atoms: _7  and  _8
REMARK    6  A    between atoms: _8  and  _9
REMARK    7  A    between atoms: _19  and  _20
REMARK    8  A    between atoms: _25  and  _27
REMARK    9  A    between atoms: _27  and  _28
REMARK   10  A    between atoms: _27  and  _30
REMARK   11  A    between atoms: _30  and  _31
REMARK   12  A    between atoms: _34  and  _36
REMARK   13  A    between atoms: _36  and  _37
REMARK   14  A    between atoms: _39  and  _41
REMARK   15  A    between atoms: _41  and  _42
REMARK   16  A    between atoms: _41  and  _44
REMARK   17  A    between atoms: _44  and  _45
REMARK   18  A    between atoms: _45  and  _46
REMARK   19  A    between atoms: _46  and  _47
REMARK   20  A    between atoms: _47  and  _48
REMARK   21  A    between atoms: _52  and  _54
REMARK   22  A    between atoms: _54  and  _55
REMARK   23  A    between atoms: _57  and  _59
REMARK   24  A    between atoms: _59  and  _60
REMARK   25  A    between atoms: _59  and  _62
REMARK   26  A    between atoms: _62  and  _63
REMARK   27  A    between atoms: _63  and  _64
REMARK   28  A    between atoms: _64  and  _65
REMARK   29  A    between atoms: _65  and  _66
REMARK   30  A    between atoms: _70  and  _72
REMARK   31  A    between atoms: _72  and  _73
REMARK   32  A    between atoms: _72  and  _75
REMARK   33  A    between atoms: _75  and  _76
REMARK   34  A    between atoms: _82  and  _84
REMARK   35  A    between atoms: _84  and  _85
REMARK   36  A    between atoms: _87  and  _89
REMARK   37  A    between atoms: _89  and  _90
REMARK   38  A    between atoms: _89  and  _92
REMARK   39  A    between atoms: _92  and  _93
REMARK   40  A    between atoms: _98  and  _100
REMARK   41  A    between atoms: _100  and  _101
REMARK   42  A    between atoms: _100  and  _103
REMARK   43  A    between atoms: _106  and  _108
REMARK   44  A    between atoms: _108  and  _109
REMARK   45  A    between atoms: _108  and  _111
REMARK   46  A    between atoms: _111  and  _112
REMARK   47  A    between atoms: _117  and  _118
REMARK   48  A    between atoms: _120  and  _122
REMARK   49  A    between atoms: _122  and  _123
REMARK   50  A    between atoms: _122  and  _125
REMARK   51  A    between atoms: _125  and  _126
REMARK   52  A    between atoms: _129  and  _131
REMARK   53  A    between atoms: _131  and  _132
REMARK   54  A    between atoms: _131  and  _134
REMARK   55  A    between atoms: _134  and  _135
REMARK   56  A    between atoms: _138  and  _140
REMARK   57  A    between atoms: _140  and  _141
REMARK   58  A    between atoms: _140  and  _143
REMARK   59  A    between atoms: _143  and  _144
REMARK   60  A    between atoms: _147  and  _149
REMARK   61  A    between atoms: _149  and  _150
REMARK   62  A    between atoms: _153  and  _155
REMARK   63  A    between atoms: _155  and  _156
REMARK   64  A    between atoms: _155  and  _158
REMARK   65  A    between atoms: _158  and  _159
REMARK   66  A    between atoms: _162  and  _164
REMARK   67  A    between atoms: _164  and  _165
REMARK   68  A    between atoms: _164  and  _167
REMARK   69  A    between atoms: _167  and  _168
REMARK   70  A    between atoms: _168  and  _169
REMARK   71  A    between atoms: _169  and  _170
REMARK   72  A    between atoms: _170  and  _171
REMARK   73  A    between atoms: _175  and  _177
REMARK   74  A    between atoms: _177  and  _178
REMARK   75  A    between atoms: _177  and  _180
REMARK   76  A    between atoms: _183  and  _185
REMARK   77  A    between atoms: _185  and  _186
REMARK   78  A    between atoms: _185  and  _188
REMARK   79  A    between atoms: _188  and  _189
REMARK   80  A    between atoms: _192  and  _194
REMARK   81  A    between atoms: _194  and  _195
REMARK   82  A    between atoms: _194  and  _197
REMARK   83  A    between atoms: _197  and  _198
REMARK   84  A    between atoms: _201  and  _203
REMARK   85  A    between atoms: _203  and  _204
REMARK   86  A    between atoms: _203  and  _206
REMARK   87  A    between atoms: _206  and  _207
REMARK   88  A    between atoms: _207  and  _208
REMARK   89  A    between atoms: _208  and  _209
REMARK   90  A    between atoms: _218  and  _220
REMARK   91  A    between atoms: _220  and  _221
REMARK   92  A    between atoms: _220  and  _223
REMARK   93  A    between atoms: _223  and  _224
REMARK   94  A    between atoms: _227  and  _229
REMARK   95  A    between atoms: _229  and  _230
REMARK   96  A    between atoms: _229  and  _232
REMARK   97  A    between atoms: _232  and  _233
REMARK   98  A    between atoms: _236  and  _238
REMARK   99  A    between atoms: _238  and  _239
REMARK  100  A    between atoms: _238  and  _241
REMARK  101  A    between atoms: _241  and  _242
REMARK  102  A    between atoms: _245  and  _247
REMARK  103  A    between atoms: _247  and  _248
REMARK  104  A    between atoms: _247  and  _250
REMARK  105  A    between atoms: _250  and  _251
REMARK  106  A    between atoms: _251  and  _252
REMARK  107  A    between atoms: _255  and  _257
REMARK  108  A    between atoms: _257  and  _258
REMARK  109  A    between atoms: _257  and  _260
REMARK  110  A    between atoms: _260  and  _261
REMARK  111  A    between atoms: _266  and  _267
REMARK  112  A    between atoms: _269  and  _271
REMARK  113  A    between atoms: _271  and  _272
REMARK  114  A    between atoms: _276  and  _277
REMARK  115  A    between atoms: _282  and  _284
REMARK  116  A    between atoms: _284  and  _285
REMARK  117  A    between atoms: _284  and  _287
REMARK  118  A    between atoms: _287  and  _288
REMARK  119  A    between atoms: _288  and  _289
REMARK  120  A    between atoms: _289  and  _290
REMARK  121  A    between atoms: _299  and  _301
REMARK  122  A    between atoms: _301  and  _302
REMARK  123  A    between atoms: _304  and  _306
REMARK  124  A    between atoms: _306  and  _307
REMARK  125  A    between atoms: _306  and  _309
REMARK  126  A    between atoms: _309  and  _310
REMARK  127  A    between atoms: _310  and  _311
REMARK  128  A    between atoms: _314  and  _316
REMARK  129  A    between atoms: _316  and  _317
REMARK  130  A    between atoms: _316  and  _319
REMARK  131  A    between atoms: _322  and  _324
REMARK  132  A    between atoms: _324  and  _325
REMARK  133  A    between atoms: _324  and  _327
REMARK  134  A    between atoms: _327  and  _328
REMARK  135  A    between atoms: _333  and  _334
REMARK  136  A    between atoms: _336  and  _338
REMARK  137  A    between atoms: _338  and  _339
REMARK  138  A    between atoms: _338  and  _341
REMARK  139  A    between atoms: _341  and  _342
REMARK  140  A    between atoms: _342  and  _343
REMARK  141  A    between atoms: _343  and  _344
REMARK  142  A    between atoms: _344  and  _345
REMARK  143  A    between atoms: _349  and  _351
REMARK  144  A    between atoms: _351  and  _352
REMARK  145  A    between atoms: _351  and  _354
REMARK  146  A    between atoms: _354  and  _355
REMARK  147  A    between atoms: _355  and  _356
REMARK  148  A    between atoms: _356  and  _357
REMARK  149  A    between atoms: _366  and  _368
REMARK  150  A    between atoms: _368  and  _369
REMARK  151  A    between atoms: _368  and  _371
REMARK  152  A    between atoms: _371  and  _372
REMARK  153  A    between atoms: _376  and  _377
REMARK  154  A    between atoms: _382  and  _384
REMARK  155  A    between atoms: _384  and  _385
REMARK  156  A    between atoms: _384  and  _387
REMARK  157  A    between atoms: _387  and  _388
REMARK  158  A    between atoms: _388  and  _389
REMARK  159  A    between atoms: _392  and  _394
REMARK  160  A    between atoms: _394  and  _395
REMARK  161  A    between atoms: _394  and  _397
REMARK  162  A    between atoms: _397  and  _398
REMARK  163  A    between atoms: _403  and  _405
REMARK  164  A    between atoms: _405  and  _406
REMARK  165  A    between atoms: _405  and  _408
REMARK  166  A    between atoms: _408  and  _409
REMARK  167  A    between atoms: _412  and  _414
REMARK  168  A    between atoms: _414  and  _415
REMARK  169  A    between atoms: _414  and  _417
REMARK  170  A    between atoms: _417  and  _418
REMARK  171  A    between atoms: _421  and  _423
REMARK  172  A    between atoms: _423  and  _424
REMARK  173  A    between atoms: _423  and  _426
REMARK  174  A    between atoms: _426  and  _427
REMARK  175  A    between atoms: _430  and  _432
REMARK  176  A    between atoms: _432  and  _433
REMARK  177  A    between atoms: _435  and  _437
REMARK  178  A    between atoms: _437  and  _438
REMARK  179  A    between atoms: _437  and  _440
REMARK  180  A    between atoms: _440  and  _441
REMARK  181  A    between atoms: _441  and  _442
REMARK  182  A    between atoms: _442  and  _443
REMARK  183  A    between atoms: _443  and  _444
REMARK  184  A    between atoms: _448  and  _450
REMARK  185  A    between atoms: _450  and  _451
REMARK  186  A    between atoms: _450  and  _453
REMARK  187  A    between atoms: _453  and  _454
REMARK  188  A    between atoms: _457  and  _459
REMARK  189  A    between atoms: _459  and  _460
REMARK  190  A    between atoms: _463  and  _465
REMARK  191  A    between atoms: _465  and  _466
REMARK  192  A    between atoms: _465  and  _468
REMARK  193  A    between atoms: _468  and  _469
REMARK  194  A    between atoms: _472  and  _474
REMARK  195  A    between atoms: _474  and  _475
REMARK  196  A    between atoms: _474  and  _477
REMARK  197  A    between atoms: _477  and  _478
REMARK  198  A    between atoms: _484  and  _486
REMARK  199  A    between atoms: _486  and  _487
REMARK  200  A    between atoms: _489  and  _491
REMARK  201  A    between atoms: _491  and  _492
REMARK  202  A    between atoms: _491  and  _494
REMARK  203  A    between atoms: _494  and  _495
REMARK  204  A    between atoms: _505  and  _507
REMARK  205  A    between atoms: _507  and  _508
REMARK  206  A    between atoms: _507  and  _510
REMARK  207  A    between atoms: _510  and  _511
REMARK  208  A    between atoms: _513  and  _515
REMARK  209  A    between atoms: _515  and  _516
REMARK  210  A    between atoms: _515  and  _518
REMARK  211  A    between atoms: _521  and  _523
REMARK  212  A    between atoms: _523  and  _524
REMARK  213  A    between atoms: _523  and  _526
REMARK  214  A    between atoms: _526  and  _527
REMARK  215  A    between atoms: _532  and  _534
REMARK  216  A    between atoms: _534  and  _535
REMARK  217  A    between atoms: _539  and  _540
REMARK                            x       y       z     vdW  Elec       q    Type
REMARK                         _______ _______ _______ _____ _____    ______ ____
ROOT
ATOM      1  O   HOH     1       4.040   0.985   6.068  0.00  0.00    +0.000 OA
ENDROOT
TORSDOF 0
REMARK  Name = ../refined-set-2016/2wtv/2wtv_pocket.pdb
REMARK  217 active torsions:
REMARK  status: ('A' for Active; 'I' for Inactive)
REMARK    1  A    between atoms: _1  and  _3
REMARK    2  A    between atoms: _3  and  _4
REMARK    3  A    between atoms: _3  and  _6
REMARK    4  A    between atoms: _6  and  _7
REMARK    5  A    between atoms: _7  and  _8
REMARK    6  A    between atoms: _8  and  _9
REMARK    7  A    between atoms: _19  and  _20
REMARK    8  A    between atoms: _25  and  _27
REMARK    9  A    between atoms: _27  and  _28
REMARK   10  A    between atoms: _27  and  _30
REMARK   11  A    between atoms: _30  and  _31
REMARK   12  A    between atoms: _34  and  _36
REMARK   13  A    between atoms: _36  and  _37
REMARK   14  A    between atoms: _39  and  _41
REMARK   15  A    between atoms: _41  and  _42
REMARK   16  A    between atoms: _41  and  _44
REMARK   17  A    between atoms: _44  and  _45
REMARK   18  A    between atoms: _45  and  _46
REMARK   19  A    between atoms: _46  and  _47
REMARK   20  A    between atoms: _47  and  _48
REMARK   21  A    between atoms: _52  and  _54
REMARK   22  A    between atoms: _54  and  _55
REMARK   23  A    between atoms: _57  and  _59
REMARK   24  A    between atoms: _59  and  _60
REMARK   25  A    between atoms: _59  and  _62
REMARK   26  A    between atoms: _62  and  _63
REMARK   27  A    between atoms: _63  and  _64
REMARK   28  A    between atoms: _64  and  _65
REMARK   29  A    between atoms: _65  and  _66
REMARK   30  A    between atoms: _70  and  _72
REMARK   31  A    between atoms: _72  and  _73
REMARK   32  A    between atoms: _72  and  _75
REMARK   33  A    between atoms: _75  and  _76
REMARK   34  A    between atoms: _82  and  _84
REMARK   35  A    between atoms: _84  and  _85
REMARK   36  A    between atoms: _87  and  _89
REMARK   37  A    between atoms: _89  and  _90
REMARK   38  A    between atoms: _89  and  _92
REMARK   39  A    between atoms: _92  and  _93
REMARK   40  A    between atoms: _98  and  _100
REMARK   41  A    between atoms: _100  and  _101
REMARK   42  A    between atoms: _100  and  _103
REMARK   43  A    between atoms: _106  and  _108
REMARK   44  A    between atoms: _108  and  _109
REMARK   45  A    between atoms: _108  and  _111
REMARK   46  A    between atoms: _111  and  _112
REMARK   47  A    between atoms: _117  and  _118
REMARK   48  A    between atoms: _120  and  _122
REMARK   49  A    between atoms: _122  and  _123
REMARK   50  A    between atoms: _122  and  _125
REMARK   51  A    between atoms: _125  and  _126
REMARK   52  A    between atoms: _129  and  _131
REMARK   53  A    between atoms: _131  and  _132
REMARK   54  A    between atoms: _131  and  _134
REMARK   55  A    between atoms: _134  and  _135
REMARK   56  A    between atoms: _138  and  _140
REMARK   57  A    between atoms: _140  and  _141
REMARK   58  A    between atoms: _140  and  _143
REMARK   59  A    between atoms: _143  and  _144
REMARK   60  A    between atoms: _147  and  _149
REMARK   61  A    between atoms: _149  and  _150
REMARK   62  A    between atoms: _153  and  _155
REMARK   63  A    between atoms: _155  and  _156
REMARK   64  A    between atoms: _155  and  _158
REMARK   65  A    between atoms: _158  and  _159
REMARK   66  A    between atoms: _162  and  _164
REMARK   67  A    between atoms: _164  and  _165
REMARK   68  A    between atoms: _164  and  _167
REMARK   69  A    between atoms: _167  and  _168
REMARK   70  A    between atoms: _168  and  _169
REMARK   71  A    between atoms: _169  and  _170
REMARK   72  A    between atoms: _170  and  _171
REMARK   73  A    between atoms: _175  and  _177
REMARK   74  A    between atoms: _177  and  _178
REMARK   75  A    between atoms: _177  and  _180
REMARK   76  A    between atoms: _183  and  _185
REMARK   77  A    between atoms: _185  and  _186
REMARK   78  A    between atoms: _185  and  _188
REMARK   79  A    between atoms: _188  and  _189
REMARK   80  A    between atoms: _192  and  _194
REMARK   81  A    between atoms: _194  and  _195
REMARK   82  A    between atoms: _194  and  _197
REMARK   83  A    between atoms: _197  and  _198
REMARK   84  A    between atoms: _201  and  _203
REMARK   85  A    between atoms: _203  and  _204
REMARK   86  A    between atoms: _203  and  _206
REMARK   87  A    between atoms: _206  and  _207
REMARK   88  A    between atoms: _207  and  _208
REMARK   89  A    between atoms: _208  and  _209
REMARK   90  A    between atoms: _218  and  _220
REMARK   91  A    between atoms: _220  and  _221
REMARK   92  A    between atoms: _220  and  _223
REMARK   93  A    between atoms: _223  and  _224
REMARK   94  A    between atoms: _227  and  _229
REMARK   95  A    between atoms: _229  and  _230
REMARK   96  A    between atoms: _229  and  _232
REMARK   97  A    between atoms: _232  and  _233
REMARK   98  A    between atoms: _236  and  _238
REMARK   99  A    between atoms: _238  and  _239
REMARK  100  A    between atoms: _238  and  _241
REMARK  101  A    between atoms: _241  and  _242
REMARK  102  A    between atoms: _245  and  _247
REMARK  103  A    between atoms: _247  and  _248
REMARK  104  A    between atoms: _247  and  _250
REMARK  105  A    between atoms: _250  and  _251
REMARK  106  A    between atoms: _251  and  _252
REMARK  107  A    between atoms: _255  and  _257
REMARK  108  A    between atoms: _257  and  _258
REMARK  109  A    between atoms: _257  and  _260
REMARK  110  A    between atoms: _260  and  _261
REMARK  111  A    between atoms: _266  and  _267
REMARK  112  A    between atoms: _269  and  _271
REMARK  113  A    between atoms: _271  and  _272
REMARK  114  A    between atoms: _276  and  _277
REMARK  115  A    between atoms: _282  and  _284
REMARK  116  A    between atoms: _284  and  _285
REMARK  117  A    between atoms: _284  and  _287
REMARK  118  A    between atoms: _287  and  _288
REMARK  119  A    between atoms: _288  and  _289
REMARK  120  A    between atoms: _289  and  _290
REMARK  121  A    between atoms: _299  and  _301
REMARK  122  A    between atoms: _301  and  _302
REMARK  123  A    between atoms: _304  and  _306
REMARK  124  A    between atoms: _306  and  _307
REMARK  125  A    between atoms: _306  and  _309
REMARK  126  A    between atoms: _309  and  _310
REMARK  127  A    between atoms: _310  and  _311
REMARK  128  A    between atoms: _314  and  _316
REMARK  129  A    between atoms: _316  and  _317
REMARK  130  A    between atoms: _316  and  _319
REMARK  131  A    between atoms: _322  and  _324
REMARK  132  A    between atoms: _324  and  _325
REMARK  133  A    between atoms: _324  and  _327
REMARK  134  A    between atoms: _327  and  _328
REMARK  135  A    between atoms: _333  and  _334
REMARK  136  A    between atoms: _336  and  _338
REMARK  137  A    between atoms: _338  and  _339
REMARK  138  A    between atoms: _338  and  _341
REMARK  139  A    between atoms: _341  and  _342
REMARK  140  A    between atoms: _342  and  _343
REMARK  141  A    between atoms: _343  and  _344
REMARK  142  A    between atoms: _344  and  _345
REMARK  143  A    between atoms: _349  and  _351
REMARK  144  A    between atoms: _351  and  _352
REMARK  145  A    between atoms: _351  and  _354
REMARK  146  A    between atoms: _354  and  _355
REMARK  147  A    between atoms: _355  and  _356
REMARK  148  A    between atoms: _356  and  _357
REMARK  149  A    between atoms: _366  and  _368
REMARK  150  A    between atoms: _368  and  _369
REMARK  151  A    between atoms: _368  and  _371
REMARK  152  A    between atoms: _371  and  _372
REMARK  153  A    between atoms: _376  and  _377
REMARK  154  A    between atoms: _382  and  _384
REMARK  155  A    between atoms: _384  and  _385
REMARK  156  A    between atoms: _384  and  _387
REMARK  157  A    between atoms: _387  and  _388
REMARK  158  A    between atoms: _388  and  _389
REMARK  159  A    between atoms: _392  and  _394
REMARK  160  A    between atoms: _394  and  _395
REMARK  161  A    between atoms: _394  and  _397
REMARK  162  A    between atoms: _397  and  _398
REMARK  163  A    between atoms: _403  and  _405
REMARK  164  A    between atoms: _405  and  _406
REMARK  165  A    between atoms: _405  and  _408
REMARK  166  A    between atoms: _408  and  _409
REMARK  167  A    between atoms: _412  and  _414
REMARK  168  A    between atoms: _414  and  _415
REMARK  169  A    between atoms: _414  and  _417
REMARK  170  A    between atoms: _417  and  _418
REMARK  171  A    between atoms: _421  and  _423
REMARK  172  A    between atoms: _423  and  _424
REMARK  173  A    between atoms: _423  and  _426
REMARK  174  A    between atoms: _426  and  _427
REMARK  175  A    between atoms: _430  and  _432
REMARK  176  A    between atoms: _432  and  _433
REMARK  177  A    between atoms: _435  and  _437
REMARK  178  A    between atoms: _437  and  _438
REMARK  179  A    between atoms: _437  and  _440
REMARK  180  A    between atoms: _440  and  _441
REMARK  181  A    between atoms: _441  and  _442
REMARK  182  A    between atoms: _442  and  _443
REMARK  183  A    between atoms: _443  and  _444
REMARK  184  A    between atoms: _448  and  _450
REMARK  185  A    between atoms: _450  and  _451
REMARK  186  A    between atoms: _450  and  _453
REMARK  187  A    between atoms: _453  and  _454
REMARK  188  A    between atoms: _457  and  _459
REMARK  189  A    between atoms: _459  and  _460
REMARK  190  A    between atoms: _463  and  _465
REMARK  191  A    between atoms: _465  and  _466
REMARK  192  A    between atoms: _465  and  _468
REMARK  193  A    between atoms: _468  and  _469
REMARK  194  A    between atoms: _472  and  _474
REMARK  195  A    between atoms: _474  and  _475
REMARK  196  A    between atoms: _474  and  _477
REMARK  197  A    between atoms: _477  and  _478
REMARK  198  A    between atoms: _484  and  _486
REMARK  199  A    between atoms: _486  and  _487
REMARK  200  A    between atoms: _489  and  _491
REMARK  201  A    between atoms: _491  and  _492
REMARK  202  A    between atoms: _491  and  _494
REMARK  203  A    between atoms: _494  and  _495
REMARK  204  A    between atoms: _505  and  _507
REMARK  205  A    between atoms: _507  and  _508
REMARK  206  A    between atoms: _507  and  _510
REMARK  207  A    between atoms: _510  and  _511
REMARK  208  A    between atoms: _513  and  _515
REMARK  209  A    between atoms: _515  and  _516
REMARK  210  A    between atoms: _515  and  _518
REMARK  211  A    between atoms: _521  and  _523
REMARK  212  A    between atoms: _523  and  _524
REMARK  213  A    between atoms: _523  and  _526
REMARK  214  A    between atoms: _526  and  _527
REMARK  215  A    between atoms: _532  and  _534
REMARK  216  A    between atoms: _534  and  _535
REMARK  217  A    between atoms: _539  and  _540
REMARK                            x       y       z     vdW  Elec       q    Type
REMARK                         _______ _______ _______ _____ _____    ______ ____
ROOT
ATOM      1  O   HOH     1       6.566  -5.758   8.102  0.00  0.00    +0.000 OA
ENDROOT
TORSDOF 0
REMARK  Name = ../refined-set-2016/2wtv/2wtv_pocket.pdb
REMARK  217 active torsions:
REMARK  status: ('A' for Active; 'I' for Inactive)
REMARK    1  A    between atoms: _1  and  _3
REMARK    2  A    between atoms: _3  and  _4
REMARK    3  A    between atoms: _3  and  _6
REMARK    4  A    between atoms: _6  and  _7
REMARK    5  A    between atoms: _7  and  _8
REMARK    6  A    between atoms: _8  and  _9
REMARK    7  A    between atoms: _19  and  _20
REMARK    8  A    between atoms: _25  and  _27
REMARK    9  A    between atoms: _27  and  _28
REMARK   10  A    between atoms: _27  and  _30
REMARK   11  A    between atoms: _30  and  _31
REMARK   12  A    between atoms: _34  and  _36
REMARK   13  A    between atoms: _36  and  _37
REMARK   14  A    between atoms: _39  and  _41
REMARK   15  A    between atoms: _41  and  _42
REMARK   16  A    between atoms: _41  and  _44
REMARK   17  A    between atoms: _44  and  _45
REMARK   18  A    between atoms: _45  and  _46
REMARK   19  A    between atoms: _46  and  _47
REMARK   20  A    between atoms: _47  and  _48
REMARK   21  A    between atoms: _52  and  _54
REMARK   22  A    between atoms: _54  and  _55
REMARK   23  A    between atoms: _57  and  _59
REMARK   24  A    between atoms: _59  and  _60
REMARK   25  A    between atoms: _59  and  _62
REMARK   26  A    between atoms: _62  and  _63
REMARK   27  A    between atoms: _63  and  _64
REMARK   28  A    between atoms: _64  and  _65
REMARK   29  A    between atoms: _65  and  _66
REMARK   30  A    between atoms: _70  and  _72
REMARK   31  A    between atoms: _72  and  _73
REMARK   32  A    between atoms: _72  and  _75
REMARK   33  A    between atoms: _75  and  _76
REMARK   34  A    between atoms: _82  and  _84
REMARK   35  A    between atoms: _84  and  _85
REMARK   36  A    between atoms: _87  and  _89
REMARK   37  A    between atoms: _89  and  _90
REMARK   38  A    between atoms: _89  and  _92
REMARK   39  A    between atoms: _92  and  _93
REMARK   40  A    between atoms: _98  and  _100
REMARK   41  A    between atoms: _100  and  _101
REMARK   42  A    between atoms: _100  and  _103
REMARK   43  A    between atoms: _106  and  _108
REMARK   44  A    between atoms: _108  and  _109
REMARK   45  A    between atoms: _108  and  _111
REMARK   46  A    between atoms: _111  and  _112
REMARK   47  A    between atoms: _117  and  _118
REMARK   48  A    between atoms: _120  and  _122
REMARK   49  A    between atoms: _122  and  _123
REMARK   50  A    between atoms: _122  and  _125
REMARK   51  A    between atoms: _125  and  _126
REMARK   52  A    between atoms: _129  and  _131
REMARK   53  A    between atoms: _131  and  _132
REMARK   54  A    between atoms: _131  and  _134
REMARK   55  A    between atoms: _134  and  _135
REMARK   56  A    between atoms: _138  and  _140
REMARK   57  A    between atoms: _140  and  _141
REMARK   58  A    between atoms: _140  and  _143
REMARK   59  A    between atoms: _143  and  _144
REMARK   60  A    between atoms: _147  and  _149
REMARK   61  A    between atoms: _149  and  _150
REMARK   62  A    between atoms: _153  and  _155
REMARK   63  A    between atoms: _155  and  _156
REMARK   64  A    between atoms: _155  and  _158
REMARK   65  A    between atoms: _158  and  _159
REMARK   66  A    between atoms: _162  and  _164
REMARK   67  A    between atoms: _164  and  _165
REMARK   68  A    between atoms: _164  and  _167
REMARK   69  A    between atoms: _167  and  _168
REMARK   70  A    between atoms: _168  and  _169
REMARK   71  A    between atoms: _169  and  _170
REMARK   72  A    between atoms: _170  and  _171
REMARK   73  A    between atoms: _175  and  _177
REMARK   74  A    between atoms: _177  and  _178
REMARK   75  A    between atoms: _177  and  _180
REMARK   76  A    between atoms: _183  and  _185
REMARK   77  A    between atoms: _185  and  _186
REMARK   78  A    between atoms: _185  and  _188
REMARK   79  A    between atoms: _188  and  _189
REMARK   80  A    between atoms: _192  and  _194
REMARK   81  A    between atoms: _194  and  _195
REMARK   82  A    between atoms: _194  and  _197
REMARK   83  A    between atoms: _197  and  _198
REMARK   84  A    between atoms: _201  and  _203
REMARK   85  A    between atoms: _203  and  _204
REMARK   86  A    between atoms: _203  and  _206
REMARK   87  A    between atoms: _206  and  _207
REMARK   88  A    between atoms: _207  and  _208
REMARK   89  A    between atoms: _208  and  _209
REMARK   90  A    between atoms: _218  and  _220
REMARK   91  A    between atoms: _220  and  _221
REMARK   92  A    between atoms: _220  and  _223
REMARK   93  A    between atoms: _223  and  _224
REMARK   94  A    between atoms: _227  and  _229
REMARK   95  A    between atoms: _229  and  _230
REMARK   96  A    between atoms: _229  and  _232
REMARK   97  A    between atoms: _232  and  _233
REMARK   98  A    between atoms: _236  and  _238
REMARK   99  A    between atoms: _238  and  _239
REMARK  100  A    between atoms: _238  and  _241
REMARK  101  A    between atoms: _241  and  _242
REMARK  102  A    between atoms: _245  and  _247
REMARK  103  A    between atoms: _247  and  _248
REMARK  104  A    between atoms: _247  and  _250
REMARK  105  A    between atoms: _250  and  _251
REMARK  106  A    between atoms: _251  and  _252
REMARK  107  A    between atoms: _255  and  _257
REMARK  108  A    between atoms: _257  and  _258
REMARK  109  A    between atoms: _257  and  _260
REMARK  110  A    between atoms: _260  and  _261
REMARK  111  A    between atoms: _266  and  _267
REMARK  112  A    between atoms: _269  and  _271
REMARK  113  A    between atoms: _271  and  _272
REMARK  114  A    between atoms: _276  and  _277
REMARK  115  A    between atoms: _282  and  _284
REMARK  116  A    between atoms: _284  and  _285
REMARK  117  A    between atoms: _284  and  _287
REMARK  118  A    between atoms: _287  and  _288
REMARK  119  A    between atoms: _288  and  _289
REMARK  120  A    between atoms: _289  and  _290
REMARK  121  A    between atoms: _299  and  _301
REMARK  122  A    between atoms: _301  and  _302
REMARK  123  A    between atoms: _304  and  _306
REMARK  124  A    between atoms: _306  and  _307
REMARK  125  A    between atoms: _306  and  _309
REMARK  126  A    between atoms: _309  and  _310
REMARK  127  A    between atoms: _310  and  _311
REMARK  128  A    between atoms: _314  and  _316
REMARK  129  A    between atoms: _316  and  _317
REMARK  130  A    between atoms: _316  and  _319
REMARK  131  A    between atoms: _322  and  _324
REMARK  132  A    between atoms: _324  and  _325
REMARK  133  A    between atoms: _324  and  _327
REMARK  134  A    between atoms: _327  and  _328
REMARK  135  A    between atoms: _333  and  _334
REMARK  136  A    between atoms: _336  and  _338
REMARK  137  A    between atoms: _338  and  _339
REMARK  138  A    between atoms: _338  and  _341
REMARK  139  A    between atoms: _341  and  _342
REMARK  140  A    between atoms: _342  and  _343
REMARK  141  A    between atoms: _343  and  _344
REMARK  142  A    between atoms: _344  and  _345
REMARK  143  A    between atoms: _349  and  _351
REMARK  144  A    between atoms: _351  and  _352
REMARK  145  A    between atoms: _351  and  _354
REMARK  146  A    between atoms: _354  and  _355
REMARK  147  A    between atoms: _355  and  _356
REMARK  148  A    between atoms: _356  and  _357
REMARK  149  A    between atoms: _366  and  _368
REMARK  150  A    between atoms: _368  and  _369
REMARK  151  A    between atoms: _368  and  _371
REMARK  152  A    between atoms: _371  and  _372
REMARK  153  A    between atoms: _376  and  _377
REMARK  154  A    between atoms: _382  and  _384
REMARK  155  A    between atoms: _384  and  _385
REMARK  156  A    between atoms: _384  and  _387
REMARK  157  A    between atoms: _387  and  _388
REMARK  158  A    between atoms: _388  and  _389
REMARK  159  A    between atoms: _392  and  _394
REMARK  160  A    between atoms: _394  and  _395
REMARK  161  A    between atoms: _394  and  _397
REMARK  162  A    between atoms: _397  and  _398
REMARK  163  A    between atoms: _403  and  _405
REMARK  164  A    between atoms: _405  and  _406
REMARK  165  A    between atoms: _405  and  _408
REMARK  166  A    between atoms: _408  and  _409
REMARK  167  A    between atoms: _412  and  _414
REMARK  168  A    between atoms: _414  and  _415
REMARK  169  A    between atoms: _414  and  _417
REMARK  170  A    between atoms: _417  and  _418
REMARK  171  A    between atoms: _421  and  _423
REMARK  172  A    between atoms: _423  and  _424
REMARK  173  A    between atoms: _423  and  _426
REMARK  174  A    between atoms: _426  and  _427
REMARK  175  A    between atoms: _430  and  _432
REMARK  176  A    between atoms: _432  and  _433
REMARK  177  A    between atoms: _435  and  _437
REMARK  178  A    between atoms: _437  and  _438
REMARK  179  A    between atoms: _437  and  _440
REMARK  180  A    between atoms: _440  and  _441
REMARK  181  A    between atoms: _441  and  _442
REMARK  182  A    between atoms: _442  and  _443
REMARK  183  A    between atoms: _443  and  _444
REMARK  184  A    between atoms: _448  and  _450
REMARK  185  A    between atoms: _450  and  _451
REMARK  186  A    between atoms: _450  and  _453
REMARK  187  A    between atoms: _453  and  _454
REMARK  188  A    between atoms: _457  and  _459
REMARK  189  A    between atoms: _459  and  _460
REMARK  190  A    between atoms: _463  and  _465
REMARK  191  A    between atoms: _465  and  _466
REMARK  192  A    between atoms: _465  and  _468
REMARK  193  A    between atoms: _468  and  _469
REMARK  194  A    between atoms: _472  and  _474
REMARK  195  A    between atoms: _474  and  _475
REMARK  196  A    between atoms: _474  and  _477
REMARK  197  A    between atoms: _477  and  _478
REMARK  198  A    between atoms: _484  and  _486
REMARK  199  A    between atoms: _486  and  _487
REMARK  200  A    between atoms: _489  and  _491
REMARK  201  A    between atoms: _491  and  _492
REMARK  202  A    between atoms: _491  and  _494
REMARK  203  A    between atoms: _494  and  _495
REMARK  204  A    between atoms: _505  and  _507
REMARK  205  A    between atoms: _507  and  _508
REMARK  206  A    between atoms: _507  and  _510
REMARK  207  A    between atoms: _510  and  _511
REMARK  208  A    between atoms: _513  and  _515
REMARK  209  A    between atoms: _515  and  _516
REMARK  210  A    between atoms: _515  and  _518
REMARK  211  A    between atoms: _521  and  _523
REMARK  212  A    between atoms: _523  and  _524
REMARK  213  A    between atoms: _523  and  _526
REMARK  214  A    between atoms: _526  and  _527
REMARK  215  A    between atoms: _532  and  _534
REMARK  216  A    between atoms: _534  and  _535
REMARK  217  A    between atoms: _539  and  _540
REMARK                            x       y       z     vdW  Elec       q    Type
REMARK                         _______ _______ _______ _____ _____    ______ ____
ROOT
ATOM      1  O   HOH     1       9.265  -6.986   2.043  0.00  0.00    +0.000 OA
ENDROOT
TORSDOF 0
REMARK  Name = ../refined-set-2016/2wtv/2wtv_pocket.pdb
REMARK  217 active torsions:
REMARK  status: ('A' for Active; 'I' for Inactive)
REMARK    1  A    between atoms: _1  and  _3
REMARK    2  A    between atoms: _3  and  _4
REMARK    3  A    between atoms: _3  and  _6
REMARK    4  A    between atoms: _6  and  _7
REMARK    5  A    between atoms: _7  and  _8
REMARK    6  A    between atoms: _8  and  _9
REMARK    7  A    between atoms: _19  and  _20
REMARK    8  A    between atoms: _25  and  _27
REMARK    9  A    between atoms: _27  and  _28
REMARK   10  A    between atoms: _27  and  _30
REMARK   11  A    between atoms: _30  and  _31
REMARK   12  A    between atoms: _34  and  _36
REMARK   13  A    between atoms: _36  and  _37
REMARK   14  A    between atoms: _39  and  _41
REMARK   15  A    between atoms: _41  and  _42
REMARK   16  A    between atoms: _41  and  _44
REMARK   17  A    between atoms: _44  and  _45
REMARK   18  A    between atoms: _45  and  _46
REMARK   19  A    between atoms: _46  and  _47
REMARK   20  A    between atoms: _47  and  _48
REMARK   21  A    between atoms: _52  and  _54
REMARK   22  A    between atoms: _54  and  _55
REMARK   23  A    between atoms: _57  and  _59
REMARK   24  A    between atoms: _59  and  _60
REMARK   25  A    between atoms: _59  and  _62
REMARK   26  A    between atoms: _62  and  _63
REMARK   27  A    between atoms: _63  and  _64
REMARK   28  A    between atoms: _64  and  _65
REMARK   29  A    between atoms: _65  and  _66
REMARK   30  A    between atoms: _70  and  _72
REMARK   31  A    between atoms: _72  and  _73
REMARK   32  A    between atoms: _72  and  _75
REMARK   33  A    between atoms: _75  and  _76
REMARK   34  A    between atoms: _82  and  _84
REMARK   35  A    between atoms: _84  and  _85
REMARK   36  A    between atoms: _87  and  _89
REMARK   37  A    between atoms: _89  and  _90
REMARK   38  A    between atoms: _89  and  _92
REMARK   39  A    between atoms: _92  and  _93
REMARK   40  A    between atoms: _98  and  _100
REMARK   41  A    between atoms: _100  and  _101
REMARK   42  A    between atoms: _100  and  _103
REMARK   43  A    between atoms: _106  and  _108
REMARK   44  A    between atoms: _108  and  _109
REMARK   45  A    between atoms: _108  and  _111
REMARK   46  A    between atoms: _111  and  _112
REMARK   47  A    between atoms: _117  and  _118
REMARK   48  A    between atoms: _120  and  _122
REMARK   49  A    between atoms: _122  and  _123
REMARK   50  A    between atoms: _122  and  _125
REMARK   51  A    between atoms: _125  and  _126
REMARK   52  A    between atoms: _129  and  _131
REMARK   53  A    between atoms: _131  and  _132
REMARK   54  A    between atoms: _131  and  _134
REMARK   55  A    between atoms: _134  and  _135
REMARK   56  A    between atoms: _138  and  _140
REMARK   57  A    between atoms: _140  and  _141
REMARK   58  A    between atoms: _140  and  _143
REMARK   59  A    between atoms: _143  and  _144
REMARK   60  A    between atoms: _147  and  _149
REMARK   61  A    between atoms: _149  and  _150
REMARK   62  A    between atoms: _153  and  _155
REMARK   63  A    between atoms: _155  and  _156
REMARK   64  A    between atoms: _155  and  _158
REMARK   65  A    between atoms: _158  and  _159
REMARK   66  A    between atoms: _162  and  _164
REMARK   67  A    between atoms: _164  and  _165
REMARK   68  A    between atoms: _164  and  _167
REMARK   69  A    between atoms: _167  and  _168
REMARK   70  A    between atoms: _168  and  _169
REMARK   71  A    between atoms: _169  and  _170
REMARK   72  A    between atoms: _170  and  _171
REMARK   73  A    between atoms: _175  and  _177
REMARK   74  A    between atoms: _177  and  _178
REMARK   75  A    between atoms: _177  and  _180
REMARK   76  A    between atoms: _183  and  _185
REMARK   77  A    between atoms: _185  and  _186
REMARK   78  A    between atoms: _185  and  _188
REMARK   79  A    between atoms: _188  and  _189
REMARK   80  A    between atoms: _192  and  _194
REMARK   81  A    between atoms: _194  and  _195
REMARK   82  A    between atoms: _194  and  _197
REMARK   83  A    between atoms: _197  and  _198
REMARK   84  A    between atoms: _201  and  _203
REMARK   85  A    between atoms: _203  and  _204
REMARK   86  A    between atoms: _203  and  _206
REMARK   87  A    between atoms: _206  and  _207
REMARK   88  A    between atoms: _207  and  _208
REMARK   89  A    between atoms: _208  and  _209
REMARK   90  A    between atoms: _218  and  _220
REMARK   91  A    between atoms: _220  and  _221
REMARK   92  A    between atoms: _220  and  _223
REMARK   93  A    between atoms: _223  and  _224
REMARK   94  A    between atoms: _227  and  _229
REMARK   95  A    between atoms: _229  and  _230
REMARK   96  A    between atoms: _229  and  _232
REMARK   97  A    between atoms: _232  and  _233
REMARK   98  A    between atoms: _236  and  _238
REMARK   99  A    between atoms: _238  and  _239
REMARK  100  A    between atoms: _238  and  _241
REMARK  101  A    between atoms: _241  and  _242
REMARK  102  A    between atoms: _245  and  _247
REMARK  103  A    between atoms: _247  and  _248
REMARK  104  A    between atoms: _247  and  _250
REMARK  105  A    between atoms: _250  and  _251
REMARK  106  A    between atoms: _251  and  _252
REMARK  107  A    between atoms: _255  and  _257
REMARK  108  A    between atoms: _257  and  _258
REMARK  109  A    between atoms: _257  and  _260
REMARK  110  A    between atoms: _260  and  _261
REMARK  111  A    between atoms: _266  and  _267
REMARK  112  A    between atoms: _269  and  _271
REMARK  113  A    between atoms: _271  and  _272
REMARK  114  A    between atoms: _276  and  _277
REMARK  115  A    between atoms: _282  and  _284
REMARK  116  A    between atoms: _284  and  _285
REMARK  117  A    between atoms: _284  and  _287
REMARK  118  A    between atoms: _287  and  _288
REMARK  119  A    between atoms: _288  and  _289
REMARK  120  A    between atoms: _289  and  _290
REMARK  121  A    between atoms: _299  and  _301
REMARK  122  A    between atoms: _301  and  _302
REMARK  123  A    between atoms: _304  and  _306
REMARK  124  A    between atoms: _306  and  _307
REMARK  125  A    between atoms: _306  and  _309
REMARK  126  A    between atoms: _309  and  _310
REMARK  127  A    between atoms: _310  and  _311
REMARK  128  A    between atoms: _314  and  _316
REMARK  129  A    between atoms: _316  and  _317
REMARK  130  A    between atoms: _316  and  _319
REMARK  131  A    between atoms: _322  and  _324
REMARK  132  A    between atoms: _324  and  _325
REMARK  133  A    between atoms: _324  and  _327
REMARK  134  A    between atoms: _327  and  _328
REMARK  135  A    between atoms: _333  and  _334
REMARK  136  A    between atoms: _336  and  _338
REMARK  137  A    between atoms: _338  and  _339
REMARK  138  A    between atoms: _338  and  _341
REMARK  139  A    between atoms: _341  and  _342
REMARK  140  A    between atoms: _342  and  _343
REMARK  141  A    between atoms: _343  and  _344
REMARK  142  A    between atoms: _344  and  _345
REMARK  143  A    between atoms: _349  and  _351
REMARK  144  A    between atoms: _351  and  _352
REMARK  145  A    between atoms: _351  and  _354
REMARK  146  A    between atoms: _354  and  _355
REMARK  147  A    between atoms: _355  and  _356
REMARK  148  A    between atoms: _356  and  _357
REMARK  149  A    between atoms: _366  and  _368
REMARK  150  A    between atoms: _368  and  _369
REMARK  151  A    between atoms: _368  and  _371
REMARK  152  A    between atoms: _371  and  _372
REMARK  153  A    between atoms: _376  and  _377
REMARK  154  A    between atoms: _382  and  _384
REMARK  155  A    between atoms: _384  and  _385
REMARK  156  A    between atoms: _384  and  _387
REMARK  157  A    between atoms: _387  and  _388
REMARK  158  A    between atoms: _388  and  _389
REMARK  159  A    between atoms: _392  and  _394
REMARK  160  A    between atoms: _394  and  _395
REMARK  161  A    between atoms: _394  and  _397
REMARK  162  A    between atoms: _397  and  _398
REMARK  163  A    between atoms: _403  and  _405
REMARK  164  A    between atoms: _405  and  _406
REMARK  165  A    between atoms: _405  and  _408
REMARK  166  A    between atoms: _408  and  _409
REMARK  167  A    between atoms: _412  and  _414
REMARK  168  A    between atoms: _414  and  _415
REMARK  169  A    between atoms: _414  and  _417
REMARK  170  A    between atoms: _417  and  _418
REMARK  171  A    between atoms: _421  and  _423
REMARK  172  A    between atoms: _423  and  _424
REMARK  173  A    between atoms: _423  and  _426
REMARK  174  A    between atoms: _426  and  _427
REMARK  175  A    between atoms: _430  and  _432
REMARK  176  A    between atoms: _432  and  _433
REMARK  177  A    between atoms: _435  and  _437
REMARK  178  A    between atoms: _437  and  _438
REMARK  179  A    between atoms: _437  and  _440
REMARK  180  A    between atoms: _440  and  _441
REMARK  181  A    between atoms: _441  and  _442
REMARK  182  A    between atoms: _442  and  _443
REMARK  183  A    between atoms: _443  and  _444
REMARK  184  A    between atoms: _448  and  _450
REMARK  185  A    between atoms: _450  and  _451
REMARK  186  A    between atoms: _450  and  _453
REMARK  187  A    between atoms: _453  and  _454
REMARK  188  A    between atoms: _457  and  _459
REMARK  189  A    between atoms: _459  and  _460
REMARK  190  A    between atoms: _463  and  _465
REMARK  191  A    between atoms: _465  and  _466
REMARK  192  A    between atoms: _465  and  _468
REMARK  193  A    between atoms: _468  and  _469
REMARK  194  A    between atoms: _472  and  _474
REMARK  195  A    between atoms: _474  and  _475
REMARK  196  A    between atoms: _474  and  _477
REMARK  197  A    between atoms: _477  and  _478
REMARK  198  A    between atoms: _484  and  _486
REMARK  199  A    between atoms: _486  and  _487
REMARK  200  A    between atoms: _489  and  _491
REMARK  201  A    between atoms: _491  and  _492
REMARK  202  A    between atoms: _491  and  _494
REMARK  203  A    between atoms: _494  and  _495
REMARK  204  A    between atoms: _505  and  _507
REMARK  205  A    between atoms: _507  and  _508
REMARK  206  A    between atoms: _507  and  _510
REMARK  207  A    between atoms: _510  and  _511
REMARK  208  A    between atoms: _513  and  _515
REMARK  209  A    between atoms: _515  and  _516
REMARK  210  A    between atoms: _515  and  _518
REMARK  211  A    between atoms: _521  and  _523
REMARK  212  A    between atoms: _523  and  _524
REMARK  213  A    between atoms: _523  and  _526
REMARK  214  A    between atoms: _526  and  _527
REMARK  215  A    between atoms: _532  and  _534
REMARK  216  A    between atoms: _534  and  _535
REMARK  217  A    between atoms: _539  and  _540
REMARK                            x       y       z     vdW  Elec       q    Type
REMARK                         _______ _______ _______ _____ _____    ______ ____
ROOT
ATOM      1  O   HOH     1       7.741  -7.609   6.486  0.00  0.00    +0.000 OA
ENDROOT
TORSDOF 0
REMARK  Name = ../refined-set-2016/2wtv/2wtv_pocket.pdb
REMARK  217 active torsions:
REMARK  status: ('A' for Active; 'I' for Inactive)
REMARK    1  A    between atoms: _1  and  _3
REMARK    2  A    between atoms: _3  and  _4
REMARK    3  A    between atoms: _3  and  _6
REMARK    4  A    between atoms: _6  and  _7
REMARK    5  A    between atoms: _7  and  _8
REMARK    6  A    between atoms: _8  and  _9
REMARK    7  A    between atoms: _19  and  _20
REMARK    8  A    between atoms: _25  and  _27
REMARK    9  A    between atoms: _27  and  _28
REMARK   10  A    between atoms: _27  and  _30
REMARK   11  A    between atoms: _30  and  _31
REMARK   12  A    between atoms: _34  and  _36
REMARK   13  A    between atoms: _36  and  _37
REMARK   14  A    between atoms: _39  and  _41
REMARK   15  A    between atoms: _41  and  _42
REMARK   16  A    between atoms: _41  and  _44
REMARK   17  A    between atoms: _44  and  _45
REMARK   18  A    between atoms: _45  and  _46
REMARK   19  A    between atoms: _46  and  _47
REMARK   20  A    between atoms: _47  and  _48
REMARK   21  A    between atoms: _52  and  _54
REMARK   22  A    between atoms: _54  and  _55
REMARK   23  A    between atoms: _57  and  _59
REMARK   24  A    between atoms: _59  and  _60
REMARK   25  A    between atoms: _59  and  _62
REMARK   26  A    between atoms: _62  and  _63
REMARK   27  A    between atoms: _63  and  _64
REMARK   28  A    between atoms: _64  and  _65
REMARK   29  A    between atoms: _65  and  _66
REMARK   30  A    between atoms: _70  and  _72
REMARK   31  A    between atoms: _72  and  _73
REMARK   32  A    between atoms: _72  and  _75
REMARK   33  A    between atoms: _75  and  _76
REMARK   34  A    between atoms: _82  and  _84
REMARK   35  A    between atoms: _84  and  _85
REMARK   36  A    between atoms: _87  and  _89
REMARK   37  A    between atoms: _89  and  _90
REMARK   38  A    between atoms: _89  and  _92
REMARK   39  A    between atoms: _92  and  _93
REMARK   40  A    between atoms: _98  and  _100
REMARK   41  A    between atoms: _100  and  _101
REMARK   42  A    between atoms: _100  and  _103
REMARK   43  A    between atoms: _106  and  _108
REMARK   44  A    between atoms: _108  and  _109
REMARK   45  A    between atoms: _108  and  _111
REMARK   46  A    between atoms: _111  and  _112
REMARK   47  A    between atoms: _117  and  _118
REMARK   48  A    between atoms: _120  and  _122
REMARK   49  A    between atoms: _122  and  _123
REMARK   50  A    between atoms: _122  and  _125
REMARK   51  A    between atoms: _125  and  _126
REMARK   52  A    between atoms: _129  and  _131
REMARK   53  A    between atoms: _131  and  _132
REMARK   54  A    between atoms: _131  and  _134
REMARK   55  A    between atoms: _134  and  _135
REMARK   56  A    between atoms: _138  and  _140
REMARK   57  A    between atoms: _140  and  _141
REMARK   58  A    between atoms: _140  and  _143
REMARK   59  A    between atoms: _143  and  _144
REMARK   60  A    between atoms: _147  and  _149
REMARK   61  A    between atoms: _149  and  _150
REMARK   62  A    between atoms: _153  and  _155
REMARK   63  A    between atoms: _155  and  _156
REMARK   64  A    between atoms: _155  and  _158
REMARK   65  A    between atoms: _158  and  _159
REMARK   66  A    between atoms: _162  and  _164
REMARK   67  A    between atoms: _164  and  _165
REMARK   68  A    between atoms: _164  and  _167
REMARK   69  A    between atoms: _167  and  _168
REMARK   70  A    between atoms: _168  and  _169
REMARK   71  A    between atoms: _169  and  _170
REMARK   72  A    between atoms: _170  and  _171
REMARK   73  A    between atoms: _175  and  _177
REMARK   74  A    between atoms: _177  and  _178
REMARK   75  A    between atoms: _177  and  _180
REMARK   76  A    between atoms: _183  and  _185
REMARK   77  A    between atoms: _185  and  _186
REMARK   78  A    between atoms: _185  and  _188
REMARK   79  A    between atoms: _188  and  _189
REMARK   80  A    between atoms: _192  and  _194
REMARK   81  A    between atoms: _194  and  _195
REMARK   82  A    between atoms: _194  and  _197
REMARK   83  A    between atoms: _197  and  _198
REMARK   84  A    between atoms: _201  and  _203
REMARK   85  A    between atoms: _203  and  _204
REMARK   86  A    between atoms: _203  and  _206
REMARK   87  A    between atoms: _206  and  _207
REMARK   88  A    between atoms: _207  and  _208
REMARK   89  A    between atoms: _208  and  _209
REMARK   90  A    between atoms: _218  and  _220
REMARK   91  A    between atoms: _220  and  _221
REMARK   92  A    between atoms: _220  and  _223
REMARK   93  A    between atoms: _223  and  _224
REMARK   94  A    between atoms: _227  and  _229
REMARK   95  A    between atoms: _229  and  _230
REMARK   96  A    between atoms: _229  and  _232
REMARK   97  A    between atoms: _232  and  _233
REMARK   98  A    between atoms: _236  and  _238
REMARK   99  A    between atoms: _238  and  _239
REMARK  100  A    between atoms: _238  and  _241
REMARK  101  A    between atoms: _241  and  _242
REMARK  102  A    between atoms: _245  and  _247
REMARK  103  A    between atoms: _247  and  _248
REMARK  104  A    between atoms: _247  and  _250
REMARK  105  A    between atoms: _250  and  _251
REMARK  106  A    between atoms: _251  and  _252
REMARK  107  A    between atoms: _255  and  _257
REMARK  108  A    between atoms: _257  and  _258
REMARK  109  A    between atoms: _257  and  _260
REMARK  110  A    between atoms: _260  and  _261
REMARK  111  A    between atoms: _266  and  _267
REMARK  112  A    between atoms: _269  and  _271
REMARK  113  A    between atoms: _271  and  _272
REMARK  114  A    between atoms: _276  and  _277
REMARK  115  A    between atoms: _282  and  _284
REMARK  116  A    between atoms: _284  and  _285
REMARK  117  A    between atoms: _284  and  _287
REMARK  118  A    between atoms: _287  and  _288
REMARK  119  A    between atoms: _288  and  _289
REMARK  120  A    between atoms: _289  and  _290
REMARK  121  A    between atoms: _299  and  _301
REMARK  122  A    between atoms: _301  and  _302
REMARK  123  A    between atoms: _304  and  _306
REMARK  124  A    between atoms: _306  and  _307
REMARK  125  A    between atoms: _306  and  _309
REMARK  126  A    between atoms: _309  and  _310
REMARK  127  A    between atoms: _310  and  _311
REMARK  128  A    between atoms: _314  and  _316
REMARK  129  A    between atoms: _316  and  _317
REMARK  130  A    between atoms: _316  and  _319
REMARK  131  A    between atoms: _322  and  _324
REMARK  132  A    between atoms: _324  and  _325
REMARK  133  A    between atoms: _324  and  _327
REMARK  134  A    between atoms: _327  and  _328
REMARK  135  A    between atoms: _333  and  _334
REMARK  136  A    between atoms: _336  and  _338
REMARK  137  A    between atoms: _338  and  _339
REMARK  138  A    between atoms: _338  and  _341
REMARK  139  A    between atoms: _341  and  _342
REMARK  140  A    between atoms: _342  and  _343
REMARK  141  A    between atoms: _343  and  _344
REMARK  142  A    between atoms: _344  and  _345
REMARK  143  A    between atoms: _349  and  _351
REMARK  144  A    between atoms: _351  and  _352
REMARK  145  A    between atoms: _351  and  _354
REMARK  146  A    between atoms: _354  and  _355
REMARK  147  A    between atoms: _355  and  _356
REMARK  148  A    between atoms: _356  and  _357
REMARK  149  A    between atoms: _366  and  _368
REMARK  150  A    between atoms: _368  and  _369
REMARK  151  A    between atoms: _368  and  _371
REMARK  152  A    between atoms: _371  and  _372
REMARK  153  A    between atoms: _376  and  _377
REMARK  154  A    between atoms: _382  and  _384
REMARK  155  A    between atoms: _384  and  _385
REMARK  156  A    between atoms: _384  and  _387
REMARK  157  A    between atoms: _387  and  _388
REMARK  158  A    between atoms: _388  and  _389
REMARK  159  A    between atoms: _392  and  _394
REMARK  160  A    between atoms: _394  and  _395
REMARK  161  A    between atoms: _394  and  _397
REMARK  162  A    between atoms: _397  and  _398
REMARK  163  A    between atoms: _403  and  _405
REMARK  164  A    between atoms: _405  and  _406
REMARK  165  A    between atoms: _405  and  _408
REMARK  166  A    between atoms: _408  and  _409
REMARK  167  A    between atoms: _412  and  _414
REMARK  168  A    between atoms: _414  and  _415
REMARK  169  A    between atoms: _414  and  _417
REMARK  170  A    between atoms: _417  and  _418
REMARK  171  A    between atoms: _421  and  _423
REMARK  172  A    between atoms: _423  and  _424
REMARK  173  A    between atoms: _423  and  _426
REMARK  174  A    between atoms: _426  and  _427
REMARK  175  A    between atoms: _430  and  _432
REMARK  176  A    between atoms: _432  and  _433
REMARK  177  A    between atoms: _435  and  _437
REMARK  178  A    between atoms: _437  and  _438
REMARK  179  A    between atoms: _437  and  _440
REMARK  180  A    between atoms: _440  and  _441
REMARK  181  A    between atoms: _441  and  _442
REMARK  182  A    between atoms: _442  and  _443
REMARK  183  A    between atoms: _443  and  _444
REMARK  184  A    between atoms: _448  and  _450
REMARK  185  A    between atoms: _450  and  _451
REMARK  186  A    between atoms: _450  and  _453
REMARK  187  A    between atoms: _453  and  _454
REMARK  188  A    between atoms: _457  and  _459
REMARK  189  A    between atoms: _459  and  _460
REMARK  190  A    between atoms: _463  and  _465
REMARK  191  A    between atoms: _465  and  _466
REMARK  192  A    between atoms: _465  and  _468
REMARK  193  A    between atoms: _468  and  _469
REMARK  194  A    between atoms: _472  and  _474
REMARK  195  A    between atoms: _474  and  _475
REMARK  196  A    between atoms: _474  and  _477
REMARK  197  A    between atoms: _477  and  _478
REMARK  198  A    between atoms: _484  and  _486
REMARK  199  A    between atoms: _486  and  _487
REMARK  200  A    between atoms: _489  and  _491
REMARK  201  A    between atoms: _491  and  _492
REMARK  202  A    between atoms: _491  and  _494
REMARK  203  A    between atoms: _494  and  _495
REMARK  204  A    between atoms: _505  and  _507
REMARK  205  A    between atoms: _507  and  _508
REMARK  206  A    between atoms: _507  and  _510
REMARK  207  A    between atoms: _510  and  _511
REMARK  208  A    between atoms: _513  and  _515
REMARK  209  A    between atoms: _515  and  _516
REMARK  210  A    between atoms: _515  and  _518
REMARK  211  A    between atoms: _521  and  _523
REMARK  212  A    between atoms: _523  and  _524
REMARK  213  A    between atoms: _523  and  _526
REMARK  214  A    between atoms: _526  and  _527
REMARK  215  A    between atoms: _532  and  _534
REMARK  216  A    between atoms: _534  and  _535
REMARK  217  A    between atoms: _539  and  _540
REMARK                            x       y       z     vdW  Elec       q    Type
REMARK                         _______ _______ _______ _____ _____    ______ ____
ROOT
ATOM      1  O   HOH     1      -4.098 -18.438  -1.149  0.00  0.00    +0.000 OA
ENDROOT
TORSDOF 0
REMARK  Name = ../refined-set-2016/2wtv/2wtv_pocket.pdb
REMARK  217 active torsions:
REMARK  status: ('A' for Active; 'I' for Inactive)
REMARK    1  A    between atoms: _1  and  _3
REMARK    2  A    between atoms: _3  and  _4
REMARK    3  A    between atoms: _3  and  _6
REMARK    4  A    between atoms: _6  and  _7
REMARK    5  A    between atoms: _7  and  _8
REMARK    6  A    between atoms: _8  and  _9
REMARK    7  A    between atoms: _19  and  _20
REMARK    8  A    between atoms: _25  and  _27
REMARK    9  A    between atoms: _27  and  _28
REMARK   10  A    between atoms: _27  and  _30
REMARK   11  A    between atoms: _30  and  _31
REMARK   12  A    between atoms: _34  and  _36
REMARK   13  A    between atoms: _36  and  _37
REMARK   14  A    between atoms: _39  and  _41
REMARK   15  A    between atoms: _41  and  _42
REMARK   16  A    between atoms: _41  and  _44
REMARK   17  A    between atoms: _44  and  _45
REMARK   18  A    between atoms: _45  and  _46
REMARK   19  A    between atoms: _46  and  _47
REMARK   20  A    between atoms: _47  and  _48
REMARK   21  A    between atoms: _52  and  _54
REMARK   22  A    between atoms: _54  and  _55
REMARK   23  A    between atoms: _57  and  _59
REMARK   24  A    between atoms: _59  and  _60
REMARK   25  A    between atoms: _59  and  _62
REMARK   26  A    between atoms: _62  and  _63
REMARK   27  A    between atoms: _63  and  _64
REMARK   28  A    between atoms: _64  and  _65
REMARK   29  A    between atoms: _65  and  _66
REMARK   30  A    between atoms: _70  and  _72
REMARK   31  A    between atoms: _72  and  _73
REMARK   32  A    between atoms: _72  and  _75
REMARK   33  A    between atoms: _75  and  _76
REMARK   34  A    between atoms: _82  and  _84
REMARK   35  A    between atoms: _84  and  _85
REMARK   36  A    between atoms: _87  and  _89
REMARK   37  A    between atoms: _89  and  _90
REMARK   38  A    between atoms: _89  and  _92
REMARK   39  A    between atoms: _92  and  _93
REMARK   40  A    between atoms: _98  and  _100
REMARK   41  A    between atoms: _100  and  _101
REMARK   42  A    between atoms: _100  and  _103
REMARK   43  A    between atoms: _106  and  _108
REMARK   44  A    between atoms: _108  and  _109
REMARK   45  A    between atoms: _108  and  _111
REMARK   46  A    between atoms: _111  and  _112
REMARK   47  A    between atoms: _117  and  _118
REMARK   48  A    between atoms: _120  and  _122
REMARK   49  A    between atoms: _122  and  _123
REMARK   50  A    between atoms: _122  and  _125
REMARK   51  A    between atoms: _125  and  _126
REMARK   52  A    between atoms: _129  and  _131
REMARK   53  A    between atoms: _131  and  _132
REMARK   54  A    between atoms: _131  and  _134
REMARK   55  A    between atoms: _134  and  _135
REMARK   56  A    between atoms: _138  and  _140
REMARK   57  A    between atoms: _140  and  _141
REMARK   58  A    between atoms: _140  and  _143
REMARK   59  A    between atoms: _143  and  _144
REMARK   60  A    between atoms: _147  and  _149
REMARK   61  A    between atoms: _149  and  _150
REMARK   62  A    between atoms: _153  and  _155
REMARK   63  A    between atoms: _155  and  _156
REMARK   64  A    between atoms: _155  and  _158
REMARK   65  A    between atoms: _158  and  _159
REMARK   66  A    between atoms: _162  and  _164
REMARK   67  A    between atoms: _164  and  _165
REMARK   68  A    between atoms: _164  and  _167
REMARK   69  A    between atoms: _167  and  _168
REMARK   70  A    between atoms: _168  and  _169
REMARK   71  A    between atoms: _169  and  _170
REMARK   72  A    between atoms: _170  and  _171
REMARK   73  A    between atoms: _175  and  _177
REMARK   74  A    between atoms: _177  and  _178
REMARK   75  A    between atoms: _177  and  _180
REMARK   76  A    between atoms: _183  and  _185
REMARK   77  A    between atoms: _185  and  _186
REMARK   78  A    between atoms: _185  and  _188
REMARK   79  A    between atoms: _188  and  _189
REMARK   80  A    between atoms: _192  and  _194
REMARK   81  A    between atoms: _194  and  _195
REMARK   82  A    between atoms: _194  and  _197
REMARK   83  A    between atoms: _197  and  _198
REMARK   84  A    between atoms: _201  and  _203
REMARK   85  A    between atoms: _203  and  _204
REMARK   86  A    between atoms: _203  and  _206
REMARK   87  A    between atoms: _206  and  _207
REMARK   88  A    between atoms: _207  and  _208
REMARK   89  A    between atoms: _208  and  _209
REMARK   90  A    between atoms: _218  and  _220
REMARK   91  A    between atoms: _220  and  _221
REMARK   92  A    between atoms: _220  and  _223
REMARK   93  A    between atoms: _223  and  _224
REMARK   94  A    between atoms: _227  and  _229
REMARK   95  A    between atoms: _229  and  _230
REMARK   96  A    between atoms: _229  and  _232
REMARK   97  A    between atoms: _232  and  _233
REMARK   98  A    between atoms: _236  and  _238
REMARK   99  A    between atoms: _238  and  _239
REMARK  100  A    between atoms: _238  and  _241
REMARK  101  A    between atoms: _241  and  _242
REMARK  102  A    between atoms: _245  and  _247
REMARK  103  A    between atoms: _247  and  _248
REMARK  104  A    between atoms: _247  and  _250
REMARK  105  A    between atoms: _250  and  _251
REMARK  106  A    between atoms: _251  and  _252
REMARK  107  A    between atoms: _255  and  _257
REMARK  108  A    between atoms: _257  and  _258
REMARK  109  A    between atoms: _257  and  _260
REMARK  110  A    between atoms: _260  and  _261
REMARK  111  A    between atoms: _266  and  _267
REMARK  112  A    between atoms: _269  and  _271
REMARK  113  A    between atoms: _271  and  _272
REMARK  114  A    between atoms: _276  and  _277
REMARK  115  A    between atoms: _282  and  _284
REMARK  116  A    between atoms: _284  and  _285
REMARK  117  A    between atoms: _284  and  _287
REMARK  118  A    between atoms: _287  and  _288
REMARK  119  A    between atoms: _288  and  _289
REMARK  120  A    between atoms: _289  and  _290
REMARK  121  A    between atoms: _299  and  _301
REMARK  122  A    between atoms: _301  and  _302
REMARK  123  A    between atoms: _304  and  _306
REMARK  124  A    between atoms: _306  and  _307
REMARK  125  A    between atoms: _306  and  _309
REMARK  126  A    between atoms: _309  and  _310
REMARK  127  A    between atoms: _310  and  _311
REMARK  128  A    between atoms: _314  and  _316
REMARK  129  A    between atoms: _316  and  _317
REMARK  130  A    between atoms: _316  and  _319
REMARK  131  A    between atoms: _322  and  _324
REMARK  132  A    between atoms: _324  and  _325
REMARK  133  A    between atoms: _324  and  _327
REMARK  134  A    between atoms: _327  and  _328
REMARK  135  A    between atoms: _333  and  _334
REMARK  136  A    between atoms: _336  and  _338
REMARK  137  A    between atoms: _338  and  _339
REMARK  138  A    between atoms: _338  and  _341
REMARK  139  A    between atoms: _341  and  _342
REMARK  140  A    between atoms: _342  and  _343
REMARK  141  A    between atoms: _343  and  _344
REMARK  142  A    between atoms: _344  and  _345
REMARK  143  A    between atoms: _349  and  _351
REMARK  144  A    between atoms: _351  and  _352
REMARK  145  A    between atoms: _351  and  _354
REMARK  146  A    between atoms: _354  and  _355
REMARK  147  A    between atoms: _355  and  _356
REMARK  148  A    between atoms: _356  and  _357
REMARK  149  A    between atoms: _366  and  _368
REMARK  150  A    between atoms: _368  and  _369
REMARK  151  A    between atoms: _368  and  _371
REMARK  152  A    between atoms: _371  and  _372
REMARK  153  A    between atoms: _376  and  _377
REMARK  154  A    between atoms: _382  and  _384
REMARK  155  A    between atoms: _384  and  _385
REMARK  156  A    between atoms: _384  and  _387
REMARK  157  A    between atoms: _387  and  _388
REMARK  158  A    between atoms: _388  and  _389
REMARK  159  A    between atoms: _392  and  _394
REMARK  160  A    between atoms: _394  and  _395
REMARK  161  A    between atoms: _394  and  _397
REMARK  162  A    between atoms: _397  and  _398
REMARK  163  A    between atoms: _403  and  _405
REMARK  164  A    between atoms: _405  and  _406
REMARK  165  A    between atoms: _405  and  _408
REMARK  166  A    between atoms: _408  and  _409
REMARK  167  A    between atoms: _412  and  _414
REMARK  168  A    between atoms: _414  and  _415
REMARK  169  A    between atoms: _414  and  _417
REMARK  170  A    between atoms: _417  and  _418
REMARK  171  A    between atoms: _421  and  _423
REMARK  172  A    between atoms: _423  and  _424
REMARK  173  A    between atoms: _423  and  _426
REMARK  174  A    between atoms: _426  and  _427
REMARK  175  A    between atoms: _430  and  _432
REMARK  176  A    between atoms: _432  and  _433
REMARK  177  A    between atoms: _435  and  _437
REMARK  178  A    between atoms: _437  and  _438
REMARK  179  A    between atoms: _437  and  _440
REMARK  180  A    between atoms: _440  and  _441
REMARK  181  A    between atoms: _441  and  _442
REMARK  182  A    between atoms: _442  and  _443
REMARK  183  A    between atoms: _443  and  _444
REMARK  184  A    between atoms: _448  and  _450
REMARK  185  A    between atoms: _450  and  _451
REMARK  186  A    between atoms: _450  and  _453
REMARK  187  A    between atoms: _453  and  _454
REMARK  188  A    between atoms: _457  and  _459
REMARK  189  A    between atoms: _459  and  _460
REMARK  190  A    between atoms: _463  and  _465
REMARK  191  A    between atoms: _465  and  _466
REMARK  192  A    between atoms: _465  and  _468
REMARK  193  A    between atoms: _468  and  _469
REMARK  194  A    between atoms: _472  and  _474
REMARK  195  A    between atoms: _474  and  _475
REMARK  196  A    between atoms: _474  and  _477
REMARK  197  A    between atoms: _477  and  _478
REMARK  198  A    between atoms: _484  and  _486
REMARK  199  A    between atoms: _486  and  _487
REMARK  200  A    between atoms: _489  and  _491
REMARK  201  A    between atoms: _491  and  _492
REMARK  202  A    between atoms: _491  and  _494
REMARK  203  A    between atoms: _494  and  _495
REMARK  204  A    between atoms: _505  and  _507
REMARK  205  A    between atoms: _507  and  _508
REMARK  206  A    between atoms: _507  and  _510
REMARK  207  A    between atoms: _510  and  _511
REMARK  208  A    between atoms: _513  and  _515
REMARK  209  A    between atoms: _515  and  _516
REMARK  210  A    between atoms: _515  and  _518
REMARK  211  A    between atoms: _521  and  _523
REMARK  212  A    between atoms: _523  and  _524
REMARK  213  A    between atoms: _523  and  _526
REMARK  214  A    between atoms: _526  and  _527
REMARK  215  A    between atoms: _532  and  _534
REMARK  216  A    between atoms: _534  and  _535
REMARK  217  A    between atoms: _539  and  _540
REMARK                            x       y       z     vdW  Elec       q    Type
REMARK                         _______ _______ _______ _____ _____    ______ ____
ROOT
ATOM      1  O   HOH     1       5.112 -13.520   3.387  0.00  0.00    +0.000 OA
ENDROOT
TORSDOF 0
REMARK  Name = ../refined-set-2016/2wtv/2wtv_pocket.pdb
REMARK  217 active torsions:
REMARK  status: ('A' for Active; 'I' for Inactive)
REMARK    1  A    between atoms: _1  and  _3
REMARK    2  A    between atoms: _3  and  _4
REMARK    3  A    between atoms: _3  and  _6
REMARK    4  A    between atoms: _6  and  _7
REMARK    5  A    between atoms: _7  and  _8
REMARK    6  A    between atoms: _8  and  _9
REMARK    7  A    between atoms: _19  and  _20
REMARK    8  A    between atoms: _25  and  _27
REMARK    9  A    between atoms: _27  and  _28
REMARK   10  A    between atoms: _27  and  _30
REMARK   11  A    between atoms: _30  and  _31
REMARK   12  A    between atoms: _34  and  _36
REMARK   13  A    between atoms: _36  and  _37
REMARK   14  A    between atoms: _39  and  _41
REMARK   15  A    between atoms: _41  and  _42
REMARK   16  A    between atoms: _41  and  _44
REMARK   17  A    between atoms: _44  and  _45
REMARK   18  A    between atoms: _45  and  _46
REMARK   19  A    between atoms: _46  and  _47
REMARK   20  A    between atoms: _47  and  _48
REMARK   21  A    between atoms: _52  and  _54
REMARK   22  A    between atoms: _54  and  _55
REMARK   23  A    between atoms: _57  and  _59
REMARK   24  A    between atoms: _59  and  _60
REMARK   25  A    between atoms: _59  and  _62
REMARK   26  A    between atoms: _62  and  _63
REMARK   27  A    between atoms: _63  and  _64
REMARK   28  A    between atoms: _64  and  _65
REMARK   29  A    between atoms: _65  and  _66
REMARK   30  A    between atoms: _70  and  _72
REMARK   31  A    between atoms: _72  and  _73
REMARK   32  A    between atoms: _72  and  _75
REMARK   33  A    between atoms: _75  and  _76
REMARK   34  A    between atoms: _82  and  _84
REMARK   35  A    between atoms: _84  and  _85
REMARK   36  A    between atoms: _87  and  _89
REMARK   37  A    between atoms: _89  and  _90
REMARK   38  A    between atoms: _89  and  _92
REMARK   39  A    between atoms: _92  and  _93
REMARK   40  A    between atoms: _98  and  _100
REMARK   41  A    between atoms: _100  and  _101
REMARK   42  A    between atoms: _100  and  _103
REMARK   43  A    between atoms: _106  and  _108
REMARK   44  A    between atoms: _108  and  _109
REMARK   45  A    between atoms: _108  and  _111
REMARK   46  A    between atoms: _111  and  _112
REMARK   47  A    between atoms: _117  and  _118
REMARK   48  A    between atoms: _120  and  _122
REMARK   49  A    between atoms: _122  and  _123
REMARK   50  A    between atoms: _122  and  _125
REMARK   51  A    between atoms: _125  and  _126
REMARK   52  A    between atoms: _129  and  _131
REMARK   53  A    between atoms: _131  and  _132
REMARK   54  A    between atoms: _131  and  _134
REMARK   55  A    between atoms: _134  and  _135
REMARK   56  A    between atoms: _138  and  _140
REMARK   57  A    between atoms: _140  and  _141
REMARK   58  A    between atoms: _140  and  _143
REMARK   59  A    between atoms: _143  and  _144
REMARK   60  A    between atoms: _147  and  _149
REMARK   61  A    between atoms: _149  and  _150
REMARK   62  A    between atoms: _153  and  _155
REMARK   63  A    between atoms: _155  and  _156
REMARK   64  A    between atoms: _155  and  _158
REMARK   65  A    between atoms: _158  and  _159
REMARK   66  A    between atoms: _162  and  _164
REMARK   67  A    between atoms: _164  and  _165
REMARK   68  A    between atoms: _164  and  _167
REMARK   69  A    between atoms: _167  and  _168
REMARK   70  A    between atoms: _168  and  _169
REMARK   71  A    between atoms: _169  and  _170
REMARK   72  A    between atoms: _170  and  _171
REMARK   73  A    between atoms: _175  and  _177
REMARK   74  A    between atoms: _177  and  _178
REMARK   75  A    between atoms: _177  and  _180
REMARK   76  A    between atoms: _183  and  _185
REMARK   77  A    between atoms: _185  and  _186
REMARK   78  A    between atoms: _185  and  _188
REMARK   79  A    between atoms: _188  and  _189
REMARK   80  A    between atoms: _192  and  _194
REMARK   81  A    between atoms: _194  and  _195
REMARK   82  A    between atoms: _194  and  _197
REMARK   83  A    between atoms: _197  and  _198
REMARK   84  A    between atoms: _201  and  _203
REMARK   85  A    between atoms: _203  and  _204
REMARK   86  A    between atoms: _203  and  _206
REMARK   87  A    between atoms: _206  and  _207
REMARK   88  A    between atoms: _207  and  _208
REMARK   89  A    between atoms: _208  and  _209
REMARK   90  A    between atoms: _218  and  _220
REMARK   91  A    between atoms: _220  and  _221
REMARK   92  A    between atoms: _220  and  _223
REMARK   93  A    between atoms: _223  and  _224
REMARK   94  A    between atoms: _227  and  _229
REMARK   95  A    between atoms: _229  and  _230
REMARK   96  A    between atoms: _229  and  _232
REMARK   97  A    between atoms: _232  and  _233
REMARK   98  A    between atoms: _236  and  _238
REMARK   99  A    between atoms: _238  and  _239
REMARK  100  A    between atoms: _238  and  _241
REMARK  101  A    between atoms: _241  and  _242
REMARK  102  A    between atoms: _245  and  _247
REMARK  103  A    between atoms: _247  and  _248
REMARK  104  A    between atoms: _247  and  _250
REMARK  105  A    between atoms: _250  and  _251
REMARK  106  A    between atoms: _251  and  _252
REMARK  107  A    between atoms: _255  and  _257
REMARK  108  A    between atoms: _257  and  _258
REMARK  109  A    between atoms: _257  and  _260
REMARK  110  A    between atoms: _260  and  _261
REMARK  111  A    between atoms: _266  and  _267
REMARK  112  A    between atoms: _269  and  _271
REMARK  113  A    between atoms: _271  and  _272
REMARK  114  A    between atoms: _276  and  _277
REMARK  115  A    between atoms: _282  and  _284
REMARK  116  A    between atoms: _284  and  _285
REMARK  117  A    between atoms: _284  and  _287
REMARK  118  A    between atoms: _287  and  _288
REMARK  119  A    between atoms: _288  and  _289
REMARK  120  A    between atoms: _289  and  _290
REMARK  121  A    between atoms: _299  and  _301
REMARK  122  A    between atoms: _301  and  _302
REMARK  123  A    between atoms: _304  and  _306
REMARK  124  A    between atoms: _306  and  _307
REMARK  125  A    between atoms: _306  and  _309
REMARK  126  A    between atoms: _309  and  _310
REMARK  127  A    between atoms: _310  and  _311
REMARK  128  A    between atoms: _314  and  _316
REMARK  129  A    between atoms: _316  and  _317
REMARK  130  A    between atoms: _316  and  _319
REMARK  131  A    between atoms: _322  and  _324
REMARK  132  A    between atoms: _324  and  _325
REMARK  133  A    between atoms: _324  and  _327
REMARK  134  A    between atoms: _327  and  _328
REMARK  135  A    between atoms: _333  and  _334
REMARK  136  A    between atoms: _336  and  _338
REMARK  137  A    between atoms: _338  and  _339
REMARK  138  A    between atoms: _338  and  _341
REMARK  139  A    between atoms: _341  and  _342
REMARK  140  A    between atoms: _342  and  _343
REMARK  141  A    between atoms: _343  and  _344
REMARK  142  A    between atoms: _344  and  _345
REMARK  143  A    between atoms: _349  and  _351
REMARK  144  A    between atoms: _351  and  _352
REMARK  145  A    between atoms: _351  and  _354
REMARK  146  A    between atoms: _354  and  _355
REMARK  147  A    between atoms: _355  and  _356
REMARK  148  A    between atoms: _356  and  _357
REMARK  149  A    between atoms: _366  and  _368
REMARK  150  A    between atoms: _368  and  _369
REMARK  151  A    between atoms: _368  and  _371
REMARK  152  A    between atoms: _371  and  _372
REMARK  153  A    between atoms: _376  and  _377
REMARK  154  A    between atoms: _382  and  _384
REMARK  155  A    between atoms: _384  and  _385
REMARK  156  A    between atoms: _384  and  _387
REMARK  157  A    between atoms: _387  and  _388
REMARK  158  A    between atoms: _388  and  _389
REMARK  159  A    between atoms: _392  and  _394
REMARK  160  A    between atoms: _394  and  _395
REMARK  161  A    between atoms: _394  and  _397
REMARK  162  A    between atoms: _397  and  _398
REMARK  163  A    between atoms: _403  and  _405
REMARK  164  A    between atoms: _405  and  _406
REMARK  165  A    between atoms: _405  and  _408
REMARK  166  A    between atoms: _408  and  _409
REMARK  167  A    between atoms: _412  and  _414
REMARK  168  A    between atoms: _414  and  _415
REMARK  169  A    between atoms: _414  and  _417
REMARK  170  A    between atoms: _417  and  _418
REMARK  171  A    between atoms: _421  and  _423
REMARK  172  A    between atoms: _423  and  _424
REMARK  173  A    between atoms: _423  and  _426
REMARK  174  A    between atoms: _426  and  _427
REMARK  175  A    between atoms: _430  and  _432
REMARK  176  A    between atoms: _432  and  _433
REMARK  177  A    between atoms: _435  and  _437
REMARK  178  A    between atoms: _437  and  _438
REMARK  179  A    between atoms: _437  and  _440
REMARK  180  A    between atoms: _440  and  _441
REMARK  181  A    between atoms: _441  and  _442
REMARK  182  A    between atoms: _442  and  _443
REMARK  183  A    between atoms: _443  and  _444
REMARK  184  A    between atoms: _448  and  _450
REMARK  185  A    between atoms: _450  and  _451
REMARK  186  A    between atoms: _450  and  _453
REMARK  187  A    between atoms: _453  and  _454
REMARK  188  A    between atoms: _457  and  _459
REMARK  189  A    between atoms: _459  and  _460
REMARK  190  A    between atoms: _463  and  _465
REMARK  191  A    between atoms: _465  and  _466
REMARK  192  A    between atoms: _465  and  _468
REMARK  193  A    between atoms: _468  and  _469
REMARK  194  A    between atoms: _472  and  _474
REMARK  195  A    between atoms: _474  and  _475
REMARK  196  A    between atoms: _474  and  _477
REMARK  197  A    between atoms: _477  and  _478
REMARK  198  A    between atoms: _484  and  _486
REMARK  199  A    between atoms: _486  and  _487
REMARK  200  A    between atoms: _489  and  _491
REMARK  201  A    between atoms: _491  and  _492
REMARK  202  A    between atoms: _491  and  _494
REMARK  203  A    between atoms: _494  and  _495
REMARK  204  A    between atoms: _505  and  _507
REMARK  205  A    between atoms: _507  and  _508
REMARK  206  A    between atoms: _507  and  _510
REMARK  207  A    between atoms: _510  and  _511
REMARK  208  A    between atoms: _513  and  _515
REMARK  209  A    between atoms: _515  and  _516
REMARK  210  A    between atoms: _515  and  _518
REMARK  211  A    between atoms: _521  and  _523
REMARK  212  A    between atoms: _523  and  _524
REMARK  213  A    between atoms: _523  and  _526
REMARK  214  A    between atoms: _526  and  _527
REMARK  215  A    between atoms: _532  and  _534
REMARK  216  A    between atoms: _534  and  _535
REMARK  217  A    between atoms: _539  and  _540
REMARK                            x       y       z     vdW  Elec       q    Type
REMARK                         _______ _______ _______ _____ _____    ______ ____
ROOT
ATOM      1  O   HOH     1       3.752 -17.781  -2.957  0.00  0.00    +0.000 OA
ENDROOT
TORSDOF 0
REMARK  Name = ../refined-set-2016/2wtv/2wtv_pocket.pdb
REMARK  217 active torsions:
REMARK  status: ('A' for Active; 'I' for Inactive)
REMARK    1  A    between atoms: _1  and  _3
REMARK    2  A    between atoms: _3  and  _4
REMARK    3  A    between atoms: _3  and  _6
REMARK    4  A    between atoms: _6  and  _7
REMARK    5  A    between atoms: _7  and  _8
REMARK    6  A    between atoms: _8  and  _9
REMARK    7  A    between atoms: _19  and  _20
REMARK    8  A    between atoms: _25  and  _27
REMARK    9  A    between atoms: _27  and  _28
REMARK   10  A    between atoms: _27  and  _30
REMARK   11  A    between atoms: _30  and  _31
REMARK   12  A    between atoms: _34  and  _36
REMARK   13  A    between atoms: _36  and  _37
REMARK   14  A    between atoms: _39  and  _41
REMARK   15  A    between atoms: _41  and  _42
REMARK   16  A    between atoms: _41  and  _44
REMARK   17  A    between atoms: _44  and  _45
REMARK   18  A    between atoms: _45  and  _46
REMARK   19  A    between atoms: _46  and  _47
REMARK   20  A    between atoms: _47  and  _48
REMARK   21  A    between atoms: _52  and  _54
REMARK   22  A    between atoms: _54  and  _55
REMARK   23  A    between atoms: _57  and  _59
REMARK   24  A    between atoms: _59  and  _60
REMARK   25  A    between atoms: _59  and  _62
REMARK   26  A    between atoms: _62  and  _63
REMARK   27  A    between atoms: _63  and  _64
REMARK   28  A    between atoms: _64  and  _65
REMARK   29  A    between atoms: _65  and  _66
REMARK   30  A    between atoms: _70  and  _72
REMARK   31  A    between atoms: _72  and  _73
REMARK   32  A    between atoms: _72  and  _75
REMARK   33  A    between atoms: _75  and  _76
REMARK   34  A    between atoms: _82  and  _84
REMARK   35  A    between atoms: _84  and  _85
REMARK   36  A    between atoms: _87  and  _89
REMARK   37  A    between atoms: _89  and  _90
REMARK   38  A    between atoms: _89  and  _92
REMARK   39  A    between atoms: _92  and  _93
REMARK   40  A    between atoms: _98  and  _100
REMARK   41  A    between atoms: _100  and  _101
REMARK   42  A    between atoms: _100  and  _103
REMARK   43  A    between atoms: _106  and  _108
REMARK   44  A    between atoms: _108  and  _109
REMARK   45  A    between atoms: _108  and  _111
REMARK   46  A    between atoms: _111  and  _112
REMARK   47  A    between atoms: _117  and  _118
REMARK   48  A    between atoms: _120  and  _122
REMARK   49  A    between atoms: _122  and  _123
REMARK   50  A    between atoms: _122  and  _125
REMARK   51  A    between atoms: _125  and  _126
REMARK   52  A    between atoms: _129  and  _131
REMARK   53  A    between atoms: _131  and  _132
REMARK   54  A    between atoms: _131  and  _134
REMARK   55  A    between atoms: _134  and  _135
REMARK   56  A    between atoms: _138  and  _140
REMARK   57  A    between atoms: _140  and  _141
REMARK   58  A    between atoms: _140  and  _143
REMARK   59  A    between atoms: _143  and  _144
REMARK   60  A    between atoms: _147  and  _149
REMARK   61  A    between atoms: _149  and  _150
REMARK   62  A    between atoms: _153  and  _155
REMARK   63  A    between atoms: _155  and  _156
REMARK   64  A    between atoms: _155  and  _158
REMARK   65  A    between atoms: _158  and  _159
REMARK   66  A    between atoms: _162  and  _164
REMARK   67  A    between atoms: _164  and  _165
REMARK   68  A    between atoms: _164  and  _167
REMARK   69  A    between atoms: _167  and  _168
REMARK   70  A    between atoms: _168  and  _169
REMARK   71  A    between atoms: _169  and  _170
REMARK   72  A    between atoms: _170  and  _171
REMARK   73  A    between atoms: _175  and  _177
REMARK   74  A    between atoms: _177  and  _178
REMARK   75  A    between atoms: _177  and  _180
REMARK   76  A    between atoms: _183  and  _185
REMARK   77  A    between atoms: _185  and  _186
REMARK   78  A    between atoms: _185  and  _188
REMARK   79  A    between atoms: _188  and  _189
REMARK   80  A    between atoms: _192  and  _194
REMARK   81  A    between atoms: _194  and  _195
REMARK   82  A    between atoms: _194  and  _197
REMARK   83  A    between atoms: _197  and  _198
REMARK   84  A    between atoms: _201  and  _203
REMARK   85  A    between atoms: _203  and  _204
REMARK   86  A    between atoms: _203  and  _206
REMARK   87  A    between atoms: _206  and  _207
REMARK   88  A    between atoms: _207  and  _208
REMARK   89  A    between atoms: _208  and  _209
REMARK   90  A    between atoms: _218  and  _220
REMARK   91  A    between atoms: _220  and  _221
REMARK   92  A    between atoms: _220  and  _223
REMARK   93  A    between atoms: _223  and  _224
REMARK   94  A    between atoms: _227  and  _229
REMARK   95  A    between atoms: _229  and  _230
REMARK   96  A    between atoms: _229  and  _232
REMARK   97  A    between atoms: _232  and  _233
REMARK   98  A    between atoms: _236  and  _238
REMARK   99  A    between atoms: _238  and  _239
REMARK  100  A    between atoms: _238  and  _241
REMARK  101  A    between atoms: _241  and  _242
REMARK  102  A    between atoms: _245  and  _247
REMARK  103  A    between atoms: _247  and  _248
REMARK  104  A    between atoms: _247  and  _250
REMARK  105  A    between atoms: _250  and  _251
REMARK  106  A    between atoms: _251  and  _252
REMARK  107  A    between atoms: _255  and  _257
REMARK  108  A    between atoms: _257  and  _258
REMARK  109  A    between atoms: _257  and  _260
REMARK  110  A    between atoms: _260  and  _261
REMARK  111  A    between atoms: _266  and  _267
REMARK  112  A    between atoms: _269  and  _271
REMARK  113  A    between atoms: _271  and  _272
REMARK  114  A    between atoms: _276  and  _277
REMARK  115  A    between atoms: _282  and  _284
REMARK  116  A    between atoms: _284  and  _285
REMARK  117  A    between atoms: _284  and  _287
REMARK  118  A    between atoms: _287  and  _288
REMARK  119  A    between atoms: _288  and  _289
REMARK  120  A    between atoms: _289  and  _290
REMARK  121  A    between atoms: _299  and  _301
REMARK  122  A    between atoms: _301  and  _302
REMARK  123  A    between atoms: _304  and  _306
REMARK  124  A    between atoms: _306  and  _307
REMARK  125  A    between atoms: _306  and  _309
REMARK  126  A    between atoms: _309  and  _310
REMARK  127  A    between atoms: _310  and  _311
REMARK  128  A    between atoms: _314  and  _316
REMARK  129  A    between atoms: _316  and  _317
REMARK  130  A    between atoms: _316  and  _319
REMARK  131  A    between atoms: _322  and  _324
REMARK  132  A    between atoms: _324  and  _325
REMARK  133  A    between atoms: _324  and  _327
REMARK  134  A    between atoms: _327  and  _328
REMARK  135  A    between atoms: _333  and  _334
REMARK  136  A    between atoms: _336  and  _338
REMARK  137  A    between atoms: _338  and  _339
REMARK  138  A    between atoms: _338  and  _341
REMARK  139  A    between atoms: _341  and  _342
REMARK  140  A    between atoms: _342  and  _343
REMARK  141  A    between atoms: _343  and  _344
REMARK  142  A    between atoms: _344  and  _345
REMARK  143  A    between atoms: _349  and  _351
REMARK  144  A    between atoms: _351  and  _352
REMARK  145  A    between atoms: _351  and  _354
REMARK  146  A    between atoms: _354  and  _355
REMARK  147  A    between atoms: _355  and  _356
REMARK  148  A    between atoms: _356  and  _357
REMARK  149  A    between atoms: _366  and  _368
REMARK  150  A    between atoms: _368  and  _369
REMARK  151  A    between atoms: _368  and  _371
REMARK  152  A    between atoms: _371  and  _372
REMARK  153  A    between atoms: _376  and  _377
REMARK  154  A    between atoms: _382  and  _384
REMARK  155  A    between atoms: _384  and  _385
REMARK  156  A    between atoms: _384  and  _387
REMARK  157  A    between atoms: _387  and  _388
REMARK  158  A    between atoms: _388  and  _389
REMARK  159  A    between atoms: _392  and  _394
REMARK  160  A    between atoms: _394  and  _395
REMARK  161  A    between atoms: _394  and  _397
REMARK  162  A    between atoms: _397  and  _398
REMARK  163  A    between atoms: _403  and  _405
REMARK  164  A    between atoms: _405  and  _406
REMARK  165  A    between atoms: _405  and  _408
REMARK  166  A    between atoms: _408  and  _409
REMARK  167  A    between atoms: _412  and  _414
REMARK  168  A    between atoms: _414  and  _415
REMARK  169  A    between atoms: _414  and  _417
REMARK  170  A    between atoms: _417  and  _418
REMARK  171  A    between atoms: _421  and  _423
REMARK  172  A    between atoms: _423  and  _424
REMARK  173  A    between atoms: _423  and  _426
REMARK  174  A    between atoms: _426  and  _427
REMARK  175  A    between atoms: _430  and  _432
REMARK  176  A    between atoms: _432  and  _433
REMARK  177  A    between atoms: _435  and  _437
REMARK  178  A    between atoms: _437  and  _438
REMARK  179  A    between atoms: _437  and  _440
REMARK  180  A    between atoms: _440  and  _441
REMARK  181  A    between atoms: _441  and  _442
REMARK  182  A    between atoms: _442  and  _443
REMARK  183  A    between atoms: _443  and  _444
REMARK  184  A    between atoms: _448  and  _450
REMARK  185  A    between atoms: _450  and  _451
REMARK  186  A    between atoms: _450  and  _453
REMARK  187  A    between atoms: _453  and  _454
REMARK  188  A    between atoms: _457  and  _459
REMARK  189  A    between atoms: _459  and  _460
REMARK  190  A    between atoms: _463  and  _465
REMARK  191  A    between atoms: _465  and  _466
REMARK  192  A    between atoms: _465  and  _468
REMARK  193  A    between atoms: _468  and  _469
REMARK  194  A    between atoms: _472  and  _474
REMARK  195  A    between atoms: _474  and  _475
REMARK  196  A    between atoms: _474  and  _477
REMARK  197  A    between atoms: _477  and  _478
REMARK  198  A    between atoms: _484  and  _486
REMARK  199  A    between atoms: _486  and  _487
REMARK  200  A    between atoms: _489  and  _491
REMARK  201  A    between atoms: _491  and  _492
REMARK  202  A    between atoms: _491  and  _494
REMARK  203  A    between atoms: _494  and  _495
REMARK  204  A    between atoms: _505  and  _507
REMARK  205  A    between atoms: _507  and  _508
REMARK  206  A    between atoms: _507  and  _510
REMARK  207  A    between atoms: _510  and  _511
REMARK  208  A    between atoms: _513  and  _515
REMARK  209  A    between atoms: _515  and  _516
REMARK  210  A    between atoms: _515  and  _518
REMARK  211  A    between atoms: _521  and  _523
REMARK  212  A    between atoms: _523  and  _524
REMARK  213  A    between atoms: _523  and  _526
REMARK  214  A    between atoms: _526  and  _527
REMARK  215  A    between atoms: _532  and  _534
REMARK  216  A    between atoms: _534  and  _535
REMARK  217  A    between atoms: _539  and  _540
REMARK                            x       y       z     vdW  Elec       q    Type
REMARK                         _______ _______ _______ _____ _____    ______ ____
ROOT
ATOM      1  O   HOH     1      -1.872 -11.350  -4.550  0.00  0.00    +0.000 OA
ENDROOT
TORSDOF 0
REMARK  Name = ../refined-set-2016/2wtv/2wtv_pocket.pdb
REMARK  217 active torsions:
REMARK  status: ('A' for Active; 'I' for Inactive)
REMARK    1  A    between atoms: _1  and  _3
REMARK    2  A    between atoms: _3  and  _4
REMARK    3  A    between atoms: _3  and  _6
REMARK    4  A    between atoms: _6  and  _7
REMARK    5  A    between atoms: _7  and  _8
REMARK    6  A    between atoms: _8  and  _9
REMARK    7  A    between atoms: _19  and  _20
REMARK    8  A    between atoms: _25  and  _27
REMARK    9  A    between atoms: _27  and  _28
REMARK   10  A    between atoms: _27  and  _30
REMARK   11  A    between atoms: _30  and  _31
REMARK   12  A    between atoms: _34  and  _36
REMARK   13  A    between atoms: _36  and  _37
REMARK   14  A    between atoms: _39  and  _41
REMARK   15  A    between atoms: _41  and  _42
REMARK   16  A    between atoms: _41  and  _44
REMARK   17  A    between atoms: _44  and  _45
REMARK   18  A    between atoms: _45  and  _46
REMARK   19  A    between atoms: _46  and  _47
REMARK   20  A    between atoms: _47  and  _48
REMARK   21  A    between atoms: _52  and  _54
REMARK   22  A    between atoms: _54  and  _55
REMARK   23  A    between atoms: _57  and  _59
REMARK   24  A    between atoms: _59  and  _60
REMARK   25  A    between atoms: _59  and  _62
REMARK   26  A    between atoms: _62  and  _63
REMARK   27  A    between atoms: _63  and  _64
REMARK   28  A    between atoms: _64  and  _65
REMARK   29  A    between atoms: _65  and  _66
REMARK   30  A    between atoms: _70  and  _72
REMARK   31  A    between atoms: _72  and  _73
REMARK   32  A    between atoms: _72  and  _75
REMARK   33  A    between atoms: _75  and  _76
REMARK   34  A    between atoms: _82  and  _84
REMARK   35  A    between atoms: _84  and  _85
REMARK   36  A    between atoms: _87  and  _89
REMARK   37  A    between atoms: _89  and  _90
REMARK   38  A    between atoms: _89  and  _92
REMARK   39  A    between atoms: _92  and  _93
REMARK   40  A    between atoms: _98  and  _100
REMARK   41  A    between atoms: _100  and  _101
REMARK   42  A    between atoms: _100  and  _103
REMARK   43  A    between atoms: _106  and  _108
REMARK   44  A    between atoms: _108  and  _109
REMARK   45  A    between atoms: _108  and  _111
REMARK   46  A    between atoms: _111  and  _112
REMARK   47  A    between atoms: _117  and  _118
REMARK   48  A    between atoms: _120  and  _122
REMARK   49  A    between atoms: _122  and  _123
REMARK   50  A    between atoms: _122  and  _125
REMARK   51  A    between atoms: _125  and  _126
REMARK   52  A    between atoms: _129  and  _131
REMARK   53  A    between atoms: _131  and  _132
REMARK   54  A    between atoms: _131  and  _134
REMARK   55  A    between atoms: _134  and  _135
REMARK   56  A    between atoms: _138  and  _140
REMARK   57  A    between atoms: _140  and  _141
REMARK   58  A    between atoms: _140  and  _143
REMARK   59  A    between atoms: _143  and  _144
REMARK   60  A    between atoms: _147  and  _149
REMARK   61  A    between atoms: _149  and  _150
REMARK   62  A    between atoms: _153  and  _155
REMARK   63  A    between atoms: _155  and  _156
REMARK   64  A    between atoms: _155  and  _158
REMARK   65  A    between atoms: _158  and  _159
REMARK   66  A    between atoms: _162  and  _164
REMARK   67  A    between atoms: _164  and  _165
REMARK   68  A    between atoms: _164  and  _167
REMARK   69  A    between atoms: _167  and  _168
REMARK   70  A    between atoms: _168  and  _169
REMARK   71  A    between atoms: _169  and  _170
REMARK   72  A    between atoms: _170  and  _171
REMARK   73  A    between atoms: _175  and  _177
REMARK   74  A    between atoms: _177  and  _178
REMARK   75  A    between atoms: _177  and  _180
REMARK   76  A    between atoms: _183  and  _185
REMARK   77  A    between atoms: _185  and  _186
REMARK   78  A    between atoms: _185  and  _188
REMARK   79  A    between atoms: _188  and  _189
REMARK   80  A    between atoms: _192  and  _194
REMARK   81  A    between atoms: _194  and  _195
REMARK   82  A    between atoms: _194  and  _197
REMARK   83  A    between atoms: _197  and  _198
REMARK   84  A    between atoms: _201  and  _203
REMARK   85  A    between atoms: _203  and  _204
REMARK   86  A    between atoms: _203  and  _206
REMARK   87  A    between atoms: _206  and  _207
REMARK   88  A    between atoms: _207  and  _208
REMARK   89  A    between atoms: _208  and  _209
REMARK   90  A    between atoms: _218  and  _220
REMARK   91  A    between atoms: _220  and  _221
REMARK   92  A    between atoms: _220  and  _223
REMARK   93  A    between atoms: _223  and  _224
REMARK   94  A    between atoms: _227  and  _229
REMARK   95  A    between atoms: _229  and  _230
REMARK   96  A    between atoms: _229  and  _232
REMARK   97  A    between atoms: _232  and  _233
REMARK   98  A    between atoms: _236  and  _238
REMARK   99  A    between atoms: _238  and  _239
REMARK  100  A    between atoms: _238  and  _241
REMARK  101  A    between atoms: _241  and  _242
REMARK  102  A    between atoms: _245  and  _247
REMARK  103  A    between atoms: _247  and  _248
REMARK  104  A    between atoms: _247  and  _250
REMARK  105  A    between atoms: _250  and  _251
REMARK  106  A    between atoms: _251  and  _252
REMARK  107  A    between atoms: _255  and  _257
REMARK  108  A    between atoms: _257  and  _258
REMARK  109  A    between atoms: _257  and  _260
REMARK  110  A    between atoms: _260  and  _261
REMARK  111  A    between atoms: _266  and  _267
REMARK  112  A    between atoms: _269  and  _271
REMARK  113  A    between atoms: _271  and  _272
REMARK  114  A    between atoms: _276  and  _277
REMARK  115  A    between atoms: _282  and  _284
REMARK  116  A    between atoms: _284  and  _285
REMARK  117  A    between atoms: _284  and  _287
REMARK  118  A    between atoms: _287  and  _288
REMARK  119  A    between atoms: _288  and  _289
REMARK  120  A    between atoms: _289  and  _290
REMARK  121  A    between atoms: _299  and  _301
REMARK  122  A    between atoms: _301  and  _302
REMARK  123  A    between atoms: _304  and  _306
REMARK  124  A    between atoms: _306  and  _307
REMARK  125  A    between atoms: _306  and  _309
REMARK  126  A    between atoms: _309  and  _310
REMARK  127  A    between atoms: _310  and  _311
REMARK  128  A    between atoms: _314  and  _316
REMARK  129  A    between atoms: _316  and  _317
REMARK  130  A    between atoms: _316  and  _319
REMARK  131  A    between atoms: _322  and  _324
REMARK  132  A    between atoms: _324  and  _325
REMARK  133  A    between atoms: _324  and  _327
REMARK  134  A    between atoms: _327  and  _328
REMARK  135  A    between atoms: _333  and  _334
REMARK  136  A    between atoms: _336  and  _338
REMARK  137  A    between atoms: _338  and  _339
REMARK  138  A    between atoms: _338  and  _341
REMARK  139  A    between atoms: _341  and  _342
REMARK  140  A    between atoms: _342  and  _343
REMARK  141  A    between atoms: _343  and  _344
REMARK  142  A    between atoms: _344  and  _345
REMARK  143  A    between atoms: _349  and  _351
REMARK  144  A    between atoms: _351  and  _352
REMARK  145  A    between atoms: _351  and  _354
REMARK  146  A    between atoms: _354  and  _355
REMARK  147  A    between atoms: _355  and  _356
REMARK  148  A    between atoms: _356  and  _357
REMARK  149  A    between atoms: _366  and  _368
REMARK  150  A    between atoms: _368  and  _369
REMARK  151  A    between atoms: _368  and  _371
REMARK  152  A    between atoms: _371  and  _372
REMARK  153  A    between atoms: _376  and  _377
REMARK  154  A    between atoms: _382  and  _384
REMARK  155  A    between atoms: _384  and  _385
REMARK  156  A    between atoms: _384  and  _387
REMARK  157  A    between atoms: _387  and  _388
REMARK  158  A    between atoms: _388  and  _389
REMARK  159  A    between atoms: _392  and  _394
REMARK  160  A    between atoms: _394  and  _395
REMARK  161  A    between atoms: _394  and  _397
REMARK  162  A    between atoms: _397  and  _398
REMARK  163  A    between atoms: _403  and  _405
REMARK  164  A    between atoms: _405  and  _406
REMARK  165  A    between atoms: _405  and  _408
REMARK  166  A    between atoms: _408  and  _409
REMARK  167  A    between atoms: _412  and  _414
REMARK  168  A    between atoms: _414  and  _415
REMARK  169  A    between atoms: _414  and  _417
REMARK  170  A    between atoms: _417  and  _418
REMARK  171  A    between atoms: _421  and  _423
REMARK  172  A    between atoms: _423  and  _424
REMARK  173  A    between atoms: _423  and  _426
REMARK  174  A    between atoms: _426  and  _427
REMARK  175  A    between atoms: _430  and  _432
REMARK  176  A    between atoms: _432  and  _433
REMARK  177  A    between atoms: _435  and  _437
REMARK  178  A    between atoms: _437  and  _438
REMARK  179  A    between atoms: _437  and  _440
REMARK  180  A    between atoms: _440  and  _441
REMARK  181  A    between atoms: _441  and  _442
REMARK  182  A    between atoms: _442  and  _443
REMARK  183  A    between atoms: _443  and  _444
REMARK  184  A    between atoms: _448  and  _450
REMARK  185  A    between atoms: _450  and  _451
REMARK  186  A    between atoms: _450  and  _453
REMARK  187  A    between atoms: _453  and  _454
REMARK  188  A    between atoms: _457  and  _459
REMARK  189  A    between atoms: _459  and  _460
REMARK  190  A    between atoms: _463  and  _465
REMARK  191  A    between atoms: _465  and  _466
REMARK  192  A    between atoms: _465  and  _468
REMARK  193  A    between atoms: _468  and  _469
REMARK  194  A    between atoms: _472  and  _474
REMARK  195  A    between atoms: _474  and  _475
REMARK  196  A    between atoms: _474  and  _477
REMARK  197  A    between atoms: _477  and  _478
REMARK  198  A    between atoms: _484  and  _486
REMARK  199  A    between atoms: _486  and  _487
REMARK  200  A    between atoms: _489  and  _491
REMARK  201  A    between atoms: _491  and  _492
REMARK  202  A    between atoms: _491  and  _494
REMARK  203  A    between atoms: _494  and  _495
REMARK  204  A    between atoms: _505  and  _507
REMARK  205  A    between atoms: _507  and  _508
REMARK  206  A    between atoms: _507  and  _510
REMARK  207  A    between atoms: _510  and  _511
REMARK  208  A    between atoms: _513  and  _515
REMARK  209  A    between atoms: _515  and  _516
REMARK  210  A    between atoms: _515  and  _518
REMARK  211  A    between atoms: _521  and  _523
REMARK  212  A    between atoms: _523  and  _524
REMARK  213  A    between atoms: _523  and  _526
REMARK  214  A    between atoms: _526  and  _527
REMARK  215  A    between atoms: _532  and  _534
REMARK  216  A    between atoms: _534  and  _535
REMARK  217  A    between atoms: _539  and  _540
REMARK                            x       y       z     vdW  Elec       q    Type
REMARK                         _______ _______ _______ _____ _____    ______ ____
ROOT
ATOM      1  O   HOH     1      -2.743 -17.433  -3.881  0.00  0.00    +0.000 OA
ENDROOT
TORSDOF 0
REMARK  Name = ../refined-set-2016/2wtv/2wtv_pocket.pdb
REMARK  217 active torsions:
REMARK  status: ('A' for Active; 'I' for Inactive)
REMARK    1  A    between atoms: _1  and  _3
REMARK    2  A    between atoms: _3  and  _4
REMARK    3  A    between atoms: _3  and  _6
REMARK    4  A    between atoms: _6  and  _7
REMARK    5  A    between atoms: _7  and  _8
REMARK    6  A    between atoms: _8  and  _9
REMARK    7  A    between atoms: _19  and  _20
REMARK    8  A    between atoms: _25  and  _27
REMARK    9  A    between atoms: _27  and  _28
REMARK   10  A    between atoms: _27  and  _30
REMARK   11  A    between atoms: _30  and  _31
REMARK   12  A    between atoms: _34  and  _36
REMARK   13  A    between atoms: _36  and  _37
REMARK   14  A    between atoms: _39  and  _41
REMARK   15  A    between atoms: _41  and  _42
REMARK   16  A    between atoms: _41  and  _44
REMARK   17  A    between atoms: _44  and  _45
REMARK   18  A    between atoms: _45  and  _46
REMARK   19  A    between atoms: _46  and  _47
REMARK   20  A    between atoms: _47  and  _48
REMARK   21  A    between atoms: _52  and  _54
REMARK   22  A    between atoms: _54  and  _55
REMARK   23  A    between atoms: _57  and  _59
REMARK   24  A    between atoms: _59  and  _60
REMARK   25  A    between atoms: _59  and  _62
REMARK   26  A    between atoms: _62  and  _63
REMARK   27  A    between atoms: _63  and  _64
REMARK   28  A    between atoms: _64  and  _65
REMARK   29  A    between atoms: _65  and  _66
REMARK   30  A    between atoms: _70  and  _72
REMARK   31  A    between atoms: _72  and  _73
REMARK   32  A    between atoms: _72  and  _75
REMARK   33  A    between atoms: _75  and  _76
REMARK   34  A    between atoms: _82  and  _84
REMARK   35  A    between atoms: _84  and  _85
REMARK   36  A    between atoms: _87  and  _89
REMARK   37  A    between atoms: _89  and  _90
REMARK   38  A    between atoms: _89  and  _92
REMARK   39  A    between atoms: _92  and  _93
REMARK   40  A    between atoms: _98  and  _100
REMARK   41  A    between atoms: _100  and  _101
REMARK   42  A    between atoms: _100  and  _103
REMARK   43  A    between atoms: _106  and  _108
REMARK   44  A    between atoms: _108  and  _109
REMARK   45  A    between atoms: _108  and  _111
REMARK   46  A    between atoms: _111  and  _112
REMARK   47  A    between atoms: _117  and  _118
REMARK   48  A    between atoms: _120  and  _122
REMARK   49  A    between atoms: _122  and  _123
REMARK   50  A    between atoms: _122  and  _125
REMARK   51  A    between atoms: _125  and  _126
REMARK   52  A    between atoms: _129  and  _131
REMARK   53  A    between atoms: _131  and  _132
REMARK   54  A    between atoms: _131  and  _134
REMARK   55  A    between atoms: _134  and  _135
REMARK   56  A    between atoms: _138  and  _140
REMARK   57  A    between atoms: _140  and  _141
REMARK   58  A    between atoms: _140  and  _143
REMARK   59  A    between atoms: _143  and  _144
REMARK   60  A    between atoms: _147  and  _149
REMARK   61  A    between atoms: _149  and  _150
REMARK   62  A    between atoms: _153  and  _155
REMARK   63  A    between atoms: _155  and  _156
REMARK   64  A    between atoms: _155  and  _158
REMARK   65  A    between atoms: _158  and  _159
REMARK   66  A    between atoms: _162  and  _164
REMARK   67  A    between atoms: _164  and  _165
REMARK   68  A    between atoms: _164  and  _167
REMARK   69  A    between atoms: _167  and  _168
REMARK   70  A    between atoms: _168  and  _169
REMARK   71  A    between atoms: _169  and  _170
REMARK   72  A    between atoms: _170  and  _171
REMARK   73  A    between atoms: _175  and  _177
REMARK   74  A    between atoms: _177  and  _178
REMARK   75  A    between atoms: _177  and  _180
REMARK   76  A    between atoms: _183  and  _185
REMARK   77  A    between atoms: _185  and  _186
REMARK   78  A    between atoms: _185  and  _188
REMARK   79  A    between atoms: _188  and  _189
REMARK   80  A    between atoms: _192  and  _194
REMARK   81  A    between atoms: _194  and  _195
REMARK   82  A    between atoms: _194  and  _197
REMARK   83  A    between atoms: _197  and  _198
REMARK   84  A    between atoms: _201  and  _203
REMARK   85  A    between atoms: _203  and  _204
REMARK   86  A    between atoms: _203  and  _206
REMARK   87  A    between atoms: _206  and  _207
REMARK   88  A    between atoms: _207  and  _208
REMARK   89  A    between atoms: _208  and  _209
REMARK   90  A    between atoms: _218  and  _220
REMARK   91  A    between atoms: _220  and  _221
REMARK   92  A    between atoms: _220  and  _223
REMARK   93  A    between atoms: _223  and  _224
REMARK   94  A    between atoms: _227  and  _229
REMARK   95  A    between atoms: _229  and  _230
REMARK   96  A    between atoms: _229  and  _232
REMARK   97  A    between atoms: _232  and  _233
REMARK   98  A    between atoms: _236  and  _238
REMARK   99  A    between atoms: _238  and  _239
REMARK  100  A    between atoms: _238  and  _241
REMARK  101  A    between atoms: _241  and  _242
REMARK  102  A    between atoms: _245  and  _247
REMARK  103  A    between atoms: _247  and  _248
REMARK  104  A    between atoms: _247  and  _250
REMARK  105  A    between atoms: _250  and  _251
REMARK  106  A    between atoms: _251  and  _252
REMARK  107  A    between atoms: _255  and  _257
REMARK  108  A    between atoms: _257  and  _258
REMARK  109  A    between atoms: _257  and  _260
REMARK  110  A    between atoms: _260  and  _261
REMARK  111  A    between atoms: _266  and  _267
REMARK  112  A    between atoms: _269  and  _271
REMARK  113  A    between atoms: _271  and  _272
REMARK  114  A    between atoms: _276  and  _277
REMARK  115  A    between atoms: _282  and  _284
REMARK  116  A    between atoms: _284  and  _285
REMARK  117  A    between atoms: _284  and  _287
REMARK  118  A    between atoms: _287  and  _288
REMARK  119  A    between atoms: _288  and  _289
REMARK  120  A    between atoms: _289  and  _290
REMARK  121  A    between atoms: _299  and  _301
REMARK  122  A    between atoms: _301  and  _302
REMARK  123  A    between atoms: _304  and  _306
REMARK  124  A    between atoms: _306  and  _307
REMARK  125  A    between atoms: _306  and  _309
REMARK  126  A    between atoms: _309  and  _310
REMARK  127  A    between atoms: _310  and  _311
REMARK  128  A    between atoms: _314  and  _316
REMARK  129  A    between atoms: _316  and  _317
REMARK  130  A    between atoms: _316  and  _319
REMARK  131  A    between atoms: _322  and  _324
REMARK  132  A    between atoms: _324  and  _325
REMARK  133  A    between atoms: _324  and  _327
REMARK  134  A    between atoms: _327  and  _328
REMARK  135  A    between atoms: _333  and  _334
REMARK  136  A    between atoms: _336  and  _338
REMARK  137  A    between atoms: _338  and  _339
REMARK  138  A    between atoms: _338  and  _341
REMARK  139  A    between atoms: _341  and  _342
REMARK  140  A    between atoms: _342  and  _343
REMARK  141  A    between atoms: _343  and  _344
REMARK  142  A    between atoms: _344  and  _345
REMARK  143  A    between atoms: _349  and  _351
REMARK  144  A    between atoms: _351  and  _352
REMARK  145  A    between atoms: _351  and  _354
REMARK  146  A    between atoms: _354  and  _355
REMARK  147  A    between atoms: _355  and  _356
REMARK  148  A    between atoms: _356  and  _357
REMARK  149  A    between atoms: _366  and  _368
REMARK  150  A    between atoms: _368  and  _369
REMARK  151  A    between atoms: _368  and  _371
REMARK  152  A    between atoms: _371  and  _372
REMARK  153  A    between atoms: _376  and  _377
REMARK  154  A    between atoms: _382  and  _384
REMARK  155  A    between atoms: _384  and  _385
REMARK  156  A    between atoms: _384  and  _387
REMARK  157  A    between atoms: _387  and  _388
REMARK  158  A    between atoms: _388  and  _389
REMARK  159  A    between atoms: _392  and  _394
REMARK  160  A    between atoms: _394  and  _395
REMARK  161  A    between atoms: _394  and  _397
REMARK  162  A    between atoms: _397  and  _398
REMARK  163  A    between atoms: _403  and  _405
REMARK  164  A    between atoms: _405  and  _406
REMARK  165  A    between atoms: _405  and  _408
REMARK  166  A    between atoms: _408  and  _409
REMARK  167  A    between atoms: _412  and  _414
REMARK  168  A    between atoms: _414  and  _415
REMARK  169  A    between atoms: _414  and  _417
REMARK  170  A    between atoms: _417  and  _418
REMARK  171  A    between atoms: _421  and  _423
REMARK  172  A    between atoms: _423  and  _424
REMARK  173  A    between atoms: _423  and  _426
REMARK  174  A    between atoms: _426  and  _427
REMARK  175  A    between atoms: _430  and  _432
REMARK  176  A    between atoms: _432  and  _433
REMARK  177  A    between atoms: _435  and  _437
REMARK  178  A    between atoms: _437  and  _438
REMARK  179  A    between atoms: _437  and  _440
REMARK  180  A    between atoms: _440  and  _441
REMARK  181  A    between atoms: _441  and  _442
REMARK  182  A    between atoms: _442  and  _443
REMARK  183  A    between atoms: _443  and  _444
REMARK  184  A    between atoms: _448  and  _450
REMARK  185  A    between atoms: _450  and  _451
REMARK  186  A    between atoms: _450  and  _453
REMARK  187  A    between atoms: _453  and  _454
REMARK  188  A    between atoms: _457  and  _459
REMARK  189  A    between atoms: _459  and  _460
REMARK  190  A    between atoms: _463  and  _465
REMARK  191  A    between atoms: _465  and  _466
REMARK  192  A    between atoms: _465  and  _468
REMARK  193  A    between atoms: _468  and  _469
REMARK  194  A    between atoms: _472  and  _474
REMARK  195  A    between atoms: _474  and  _475
REMARK  196  A    between atoms: _474  and  _477
REMARK  197  A    between atoms: _477  and  _478
REMARK  198  A    between atoms: _484  and  _486
REMARK  199  A    between atoms: _486  and  _487
REMARK  200  A    between atoms: _489  and  _491
REMARK  201  A    between atoms: _491  and  _492
REMARK  202  A    between atoms: _491  and  _494
REMARK  203  A    between atoms: _494  and  _495
REMARK  204  A    between atoms: _505  and  _507
REMARK  205  A    between atoms: _507  and  _508
REMARK  206  A    between atoms: _507  and  _510
REMARK  207  A    between atoms: _510  and  _511
REMARK  208  A    between atoms: _513  and  _515
REMARK  209  A    between atoms: _515  and  _516
REMARK  210  A    between atoms: _515  and  _518
REMARK  211  A    between atoms: _521  and  _523
REMARK  212  A    between atoms: _523  and  _524
REMARK  213  A    between atoms: _523  and  _526
REMARK  214  A    between atoms: _526  and  _527
REMARK  215  A    between atoms: _532  and  _534
REMARK  216  A    between atoms: _534  and  _535
REMARK  217  A    between atoms: _539  and  _540
REMARK                            x       y       z     vdW  Elec       q    Type
REMARK                         _______ _______ _______ _____ _____    ______ ____
ROOT
ATOM      1  O   HOH     1      10.148  -5.090  -2.782  0.00  0.00    +0.000 OA
ENDROOT
TORSDOF 0
REMARK  Name = ../refined-set-2016/2wtv/2wtv_pocket.pdb
REMARK  217 active torsions:
REMARK  status: ('A' for Active; 'I' for Inactive)
REMARK    1  A    between atoms: _1  and  _3
REMARK    2  A    between atoms: _3  and  _4
REMARK    3  A    between atoms: _3  and  _6
REMARK    4  A    between atoms: _6  and  _7
REMARK    5  A    between atoms: _7  and  _8
REMARK    6  A    between atoms: _8  and  _9
REMARK    7  A    between atoms: _19  and  _20
REMARK    8  A    between atoms: _25  and  _27
REMARK    9  A    between atoms: _27  and  _28
REMARK   10  A    between atoms: _27  and  _30
REMARK   11  A    between atoms: _30  and  _31
REMARK   12  A    between atoms: _34  and  _36
REMARK   13  A    between atoms: _36  and  _37
REMARK   14  A    between atoms: _39  and  _41
REMARK   15  A    between atoms: _41  and  _42
REMARK   16  A    between atoms: _41  and  _44
REMARK   17  A    between atoms: _44  and  _45
REMARK   18  A    between atoms: _45  and  _46
REMARK   19  A    between atoms: _46  and  _47
REMARK   20  A    between atoms: _47  and  _48
REMARK   21  A    between atoms: _52  and  _54
REMARK   22  A    between atoms: _54  and  _55
REMARK   23  A    between atoms: _57  and  _59
REMARK   24  A    between atoms: _59  and  _60
REMARK   25  A    between atoms: _59  and  _62
REMARK   26  A    between atoms: _62  and  _63
REMARK   27  A    between atoms: _63  and  _64
REMARK   28  A    between atoms: _64  and  _65
REMARK   29  A    between atoms: _65  and  _66
REMARK   30  A    between atoms: _70  and  _72
REMARK   31  A    between atoms: _72  and  _73
REMARK   32  A    between atoms: _72  and  _75
REMARK   33  A    between atoms: _75  and  _76
REMARK   34  A    between atoms: _82  and  _84
REMARK   35  A    between atoms: _84  and  _85
REMARK   36  A    between atoms: _87  and  _89
REMARK   37  A    between atoms: _89  and  _90
REMARK   38  A    between atoms: _89  and  _92
REMARK   39  A    between atoms: _92  and  _93
REMARK   40  A    between atoms: _98  and  _100
REMARK   41  A    between atoms: _100  and  _101
REMARK   42  A    between atoms: _100  and  _103
REMARK   43  A    between atoms: _106  and  _108
REMARK   44  A    between atoms: _108  and  _109
REMARK   45  A    between atoms: _108  and  _111
REMARK   46  A    between atoms: _111  and  _112
REMARK   47  A    between atoms: _117  and  _118
REMARK   48  A    between atoms: _120  and  _122
REMARK   49  A    between atoms: _122  and  _123
REMARK   50  A    between atoms: _122  and  _125
REMARK   51  A    between atoms: _125  and  _126
REMARK   52  A    between atoms: _129  and  _131
REMARK   53  A    between atoms: _131  and  _132
REMARK   54  A    between atoms: _131  and  _134
REMARK   55  A    between atoms: _134  and  _135
REMARK   56  A    between atoms: _138  and  _140
REMARK   57  A    between atoms: _140  and  _141
REMARK   58  A    between atoms: _140  and  _143
REMARK   59  A    between atoms: _143  and  _144
REMARK   60  A    between atoms: _147  and  _149
REMARK   61  A    between atoms: _149  and  _150
REMARK   62  A    between atoms: _153  and  _155
REMARK   63  A    between atoms: _155  and  _156
REMARK   64  A    between atoms: _155  and  _158
REMARK   65  A    between atoms: _158  and  _159
REMARK   66  A    between atoms: _162  and  _164
REMARK   67  A    between atoms: _164  and  _165
REMARK   68  A    between atoms: _164  and  _167
REMARK   69  A    between atoms: _167  and  _168
REMARK   70  A    between atoms: _168  and  _169
REMARK   71  A    between atoms: _169  and  _170
REMARK   72  A    between atoms: _170  and  _171
REMARK   73  A    between atoms: _175  and  _177
REMARK   74  A    between atoms: _177  and  _178
REMARK   75  A    between atoms: _177  and  _180
REMARK   76  A    between atoms: _183  and  _185
REMARK   77  A    between atoms: _185  and  _186
REMARK   78  A    between atoms: _185  and  _188
REMARK   79  A    between atoms: _188  and  _189
REMARK   80  A    between atoms: _192  and  _194
REMARK   81  A    between atoms: _194  and  _195
REMARK   82  A    between atoms: _194  and  _197
REMARK   83  A    between atoms: _197  and  _198
REMARK   84  A    between atoms: _201  and  _203
REMARK   85  A    between atoms: _203  and  _204
REMARK   86  A    between atoms: _203  and  _206
REMARK   87  A    between atoms: _206  and  _207
REMARK   88  A    between atoms: _207  and  _208
REMARK   89  A    between atoms: _208  and  _209
REMARK   90  A    between atoms: _218  and  _220
REMARK   91  A    between atoms: _220  and  _221
REMARK   92  A    between atoms: _220  and  _223
REMARK   93  A    between atoms: _223  and  _224
REMARK   94  A    between atoms: _227  and  _229
REMARK   95  A    between atoms: _229  and  _230
REMARK   96  A    between atoms: _229  and  _232
REMARK   97  A    between atoms: _232  and  _233
REMARK   98  A    between atoms: _236  and  _238
REMARK   99  A    between atoms: _238  and  _239
REMARK  100  A    between atoms: _238  and  _241
REMARK  101  A    between atoms: _241  and  _242
REMARK  102  A    between atoms: _245  and  _247
REMARK  103  A    between atoms: _247  and  _248
REMARK  104  A    between atoms: _247  and  _250
REMARK  105  A    between atoms: _250  and  _251
REMARK  106  A    between atoms: _251  and  _252
REMARK  107  A    between atoms: _255  and  _257
REMARK  108  A    between atoms: _257  and  _258
REMARK  109  A    between atoms: _257  and  _260
REMARK  110  A    between atoms: _260  and  _261
REMARK  111  A    between atoms: _266  and  _267
REMARK  112  A    between atoms: _269  and  _271
REMARK  113  A    between atoms: _271  and  _272
REMARK  114  A    between atoms: _276  and  _277
REMARK  115  A    between atoms: _282  and  _284
REMARK  116  A    between atoms: _284  and  _285
REMARK  117  A    between atoms: _284  and  _287
REMARK  118  A    between atoms: _287  and  _288
REMARK  119  A    between atoms: _288  and  _289
REMARK  120  A    between atoms: _289  and  _290
REMARK  121  A    between atoms: _299  and  _301
REMARK  122  A    between atoms: _301  and  _302
REMARK  123  A    between atoms: _304  and  _306
REMARK  124  A    between atoms: _306  and  _307
REMARK  125  A    between atoms: _306  and  _309
REMARK  126  A    between atoms: _309  and  _310
REMARK  127  A    between atoms: _310  and  _311
REMARK  128  A    between atoms: _314  and  _316
REMARK  129  A    between atoms: _316  and  _317
REMARK  130  A    between atoms: _316  and  _319
REMARK  131  A    between atoms: _322  and  _324
REMARK  132  A    between atoms: _324  and  _325
REMARK  133  A    between atoms: _324  and  _327
REMARK  134  A    between atoms: _327  and  _328
REMARK  135  A    between atoms: _333  and  _334
REMARK  136  A    between atoms: _336  and  _338
REMARK  137  A    between atoms: _338  and  _339
REMARK  138  A    between atoms: _338  and  _341
REMARK  139  A    between atoms: _341  and  _342
REMARK  140  A    between atoms: _342  and  _343
REMARK  141  A    between atoms: _343  and  _344
REMARK  142  A    between atoms: _344  and  _345
REMARK  143  A    between atoms: _349  and  _351
REMARK  144  A    between atoms: _351  and  _352
REMARK  145  A    between atoms: _351  and  _354
REMARK  146  A    between atoms: _354  and  _355
REMARK  147  A    between atoms: _355  and  _356
REMARK  148  A    between atoms: _356  and  _357
REMARK  149  A    between atoms: _366  and  _368
REMARK  150  A    between atoms: _368  and  _369
REMARK  151  A    between atoms: _368  and  _371
REMARK  152  A    between atoms: _371  and  _372
REMARK  153  A    between atoms: _376  and  _377
REMARK  154  A    between atoms: _382  and  _384
REMARK  155  A    between atoms: _384  and  _385
REMARK  156  A    between atoms: _384  and  _387
REMARK  157  A    between atoms: _387  and  _388
REMARK  158  A    between atoms: _388  and  _389
REMARK  159  A    between atoms: _392  and  _394
REMARK  160  A    between atoms: _394  and  _395
REMARK  161  A    between atoms: _394  and  _397
REMARK  162  A    between atoms: _397  and  _398
REMARK  163  A    between atoms: _403  and  _405
REMARK  164  A    between atoms: _405  and  _406
REMARK  165  A    between atoms: _405  and  _408
REMARK  166  A    between atoms: _408  and  _409
REMARK  167  A    between atoms: _412  and  _414
REMARK  168  A    between atoms: _414  and  _415
REMARK  169  A    between atoms: _414  and  _417
REMARK  170  A    between atoms: _417  and  _418
REMARK  171  A    between atoms: _421  and  _423
REMARK  172  A    between atoms: _423  and  _424
REMARK  173  A    between atoms: _423  and  _426
REMARK  174  A    between atoms: _426  and  _427
REMARK  175  A    between atoms: _430  and  _432
REMARK  176  A    between atoms: _432  and  _433
REMARK  177  A    between atoms: _435  and  _437
REMARK  178  A    between atoms: _437  and  _438
REMARK  179  A    between atoms: _437  and  _440
REMARK  180  A    between atoms: _440  and  _441
REMARK  181  A    between atoms: _441  and  _442
REMARK  182  A    between atoms: _442  and  _443
REMARK  183  A    between atoms: _443  and  _444
REMARK  184  A    between atoms: _448  and  _450
REMARK  185  A    between atoms: _450  and  _451
REMARK  186  A    between atoms: _450  and  _453
REMARK  187  A    between atoms: _453  and  _454
REMARK  188  A    between atoms: _457  and  _459
REMARK  189  A    between atoms: _459  and  _460
REMARK  190  A    between atoms: _463  and  _465
REMARK  191  A    between atoms: _465  and  _466
REMARK  192  A    between atoms: _465  and  _468
REMARK  193  A    between atoms: _468  and  _469
REMARK  194  A    between atoms: _472  and  _474
REMARK  195  A    between atoms: _474  and  _475
REMARK  196  A    between atoms: _474  and  _477
REMARK  197  A    between atoms: _477  and  _478
REMARK  198  A    between atoms: _484  and  _486
REMARK  199  A    between atoms: _486  and  _487
REMARK  200  A    between atoms: _489  and  _491
REMARK  201  A    between atoms: _491  and  _492
REMARK  202  A    between atoms: _491  and  _494
REMARK  203  A    between atoms: _494  and  _495
REMARK  204  A    between atoms: _505  and  _507
REMARK  205  A    between atoms: _507  and  _508
REMARK  206  A    between atoms: _507  and  _510
REMARK  207  A    between atoms: _510  and  _511
REMARK  208  A    between atoms: _513  and  _515
REMARK  209  A    between atoms: _515  and  _516
REMARK  210  A    between atoms: _515  and  _518
REMARK  211  A    between atoms: _521  and  _523
REMARK  212  A    between atoms: _523  and  _524
REMARK  213  A    between atoms: _523  and  _526
REMARK  214  A    between atoms: _526  and  _527
REMARK  215  A    between atoms: _532  and  _534
REMARK  216  A    between atoms: _534  and  _535
REMARK  217  A    between atoms: _539  and  _540
REMARK                            x       y       z     vdW  Elec       q    Type
REMARK                         _______ _______ _______ _____ _____    ______ ____
ROOT
ATOM      1  O   HOH     1       5.919 -15.869  -2.524  0.00  0.00    +0.000 OA
ENDROOT
TORSDOF 0
