REMARK  Name = ../refined-set-2016/4omc/4omc_pocket.pdb
REMARK  257 active torsions:
REMARK  status: ('A' for Active; 'I' for Inactive)
REMARK    1  A    between atoms: _1  and  _3
REMARK    2  A    between atoms: _3  and  _4
REMARK    3  A    between atoms: _3  and  _6
REMARK    4  A    between atoms: _6  and  _7
REMARK    5  A    between atoms: _10  and  _12
REMARK    6  A    between atoms: _12  and  _13
REMARK    7  A    between atoms: _12  and  _15
REMARK    8  A    between atoms: _15  and  _16
REMARK    9  A    between atoms: _19  and  _21
REMARK   10  A    between atoms: _21  and  _22
REMARK   11  A    between atoms: _24  and  _26
REMARK   12  A    between atoms: _26  and  _27
REMARK   13  A    between atoms: _26  and  _29
REMARK   14  A    between atoms: _29  and  _30
REMARK   15  A    between atoms: _35  and  _37
REMARK   16  A    between atoms: _37  and  _38
REMARK   17  A    between atoms: _37  and  _40
REMARK   18  A    between atoms: _40  and  _41
REMARK   19  A    between atoms: _41  and  _42
REMARK   20  A    between atoms: _42  and  _43
REMARK   21  A    between atoms: _52  and  _54
REMARK   22  A    between atoms: _54  and  _55
REMARK   23  A    between atoms: _54  and  _57
REMARK   24  A    between atoms: _57  and  _58
REMARK   25  A    between atoms: _61  and  _63
REMARK   26  A    between atoms: _63  and  _64
REMARK   27  A    between atoms: _63  and  _66
REMARK   28  A    between atoms: _66  and  _67
REMARK   29  A    between atoms: _72  and  _74
REMARK   30  A    between atoms: _74  and  _75
REMARK   31  A    between atoms: _74  and  _77
REMARK   32  A    between atoms: _77  and  _78
REMARK   33  A    between atoms: _81  and  _83
REMARK   34  A    between atoms: _83  and  _84
REMARK   35  A    between atoms: _83  and  _86
REMARK   36  A    between atoms: _86  and  _87
REMARK   37  A    between atoms: _92  and  _94
REMARK   38  A    between atoms: _94  and  _95
REMARK   39  A    between atoms: _94  and  _97
REMARK   40  A    between atoms: _97  and  _98
REMARK   41  A    between atoms: _98  and  _99
REMARK   42  A    between atoms: _99  and  _100
REMARK   43  A    between atoms: _109  and  _111
REMARK   44  A    between atoms: _111  and  _112
REMARK   45  A    between atoms: _111  and  _114
REMARK   46  A    between atoms: _114  and  _115
REMARK   47  A    between atoms: _120  and  _122
REMARK   48  A    between atoms: _122  and  _123
REMARK   49  A    between atoms: _125  and  _127
REMARK   50  A    between atoms: _127  and  _128
REMARK   51  A    between atoms: _127  and  _130
REMARK   52  A    between atoms: _130  and  _131
REMARK   53  A    between atoms: _134  and  _136
REMARK   54  A    between atoms: _136  and  _137
REMARK   55  A    between atoms: _136  and  _139
REMARK   56  A    between atoms: _141  and  _143
REMARK   57  A    between atoms: _143  and  _144
REMARK   58  A    between atoms: _143  and  _146
REMARK   59  A    between atoms: _146  and  _147
REMARK   60  A    between atoms: _147  and  _148
REMARK   61  A    between atoms: _148  and  _149
REMARK   62  A    between atoms: _158  and  _160
REMARK   63  A    between atoms: _160  and  _161
REMARK   64  A    between atoms: _160  and  _163
REMARK   65  A    between atoms: _163  and  _164
REMARK   66  A    between atoms: _164  and  _165
REMARK   67  A    between atoms: _167  and  _169
REMARK   68  A    between atoms: _169  and  _170
REMARK   69  A    between atoms: _169  and  _172
REMARK   70  A    between atoms: _172  and  _173
REMARK   71  A    between atoms: _176  and  _178
REMARK   72  A    between atoms: _178  and  _179
REMARK   73  A    between atoms: _178  and  _181
REMARK   74  A    between atoms: _181  and  _182
REMARK   75  A    between atoms: _185  and  _187
REMARK   76  A    between atoms: _187  and  _188
REMARK   77  A    between atoms: _190  and  _192
REMARK   78  A    between atoms: _192  and  _193
REMARK   79  A    between atoms: _192  and  _195
REMARK   80  A    between atoms: _195  and  _196
REMARK   81  A    between atoms: _196  and  _197
REMARK   82  A    between atoms: _200  and  _202
REMARK   83  A    between atoms: _202  and  _203
REMARK   84  A    between atoms: _202  and  _205
REMARK   85  A    between atoms: _208  and  _210
REMARK   86  A    between atoms: _210  and  _211
REMARK   87  A    between atoms: _210  and  _213
REMARK   88  A    between atoms: _213  and  _214
REMARK   89  A    between atoms: _217  and  _219
REMARK   90  A    between atoms: _219  and  _220
REMARK   91  A    between atoms: _219  and  _222
REMARK   92  A    between atoms: _222  and  _223
REMARK   93  A    between atoms: _226  and  _228
REMARK   94  A    between atoms: _228  and  _229
REMARK   95  A    between atoms: _232  and  _234
REMARK   96  A    between atoms: _234  and  _235
REMARK   97  A    between atoms: _234  and  _237
REMARK   98  A    between atoms: _240  and  _242
REMARK   99  A    between atoms: _242  and  _243
REMARK  100  A    between atoms: _242  and  _245
REMARK  101  A    between atoms: _245  and  _246
REMARK  102  A    between atoms: _246  and  _247
REMARK  103  A    between atoms: _250  and  _252
REMARK  104  A    between atoms: _252  and  _253
REMARK  105  A    between atoms: _256  and  _258
REMARK  106  A    between atoms: _258  and  _259
REMARK  107  A    between atoms: _262  and  _264
REMARK  108  A    between atoms: _264  and  _265
REMARK  109  A    between atoms: _264  and  _267
REMARK  110  A    between atoms: _267  and  _268
REMARK  111  A    between atoms: _270  and  _272
REMARK  112  A    between atoms: _272  and  _273
REMARK  113  A    between atoms: _272  and  _275
REMARK  114  A    between atoms: _275  and  _276
REMARK  115  A    between atoms: _286  and  _288
REMARK  116  A    between atoms: _288  and  _289
REMARK  117  A    between atoms: _292  and  _293
REMARK  118  A    between atoms: _298  and  _300
REMARK  119  A    between atoms: _300  and  _301
REMARK  120  A    between atoms: _300  and  _303
REMARK  121  A    between atoms: _303  and  _304
REMARK  122  A    between atoms: _304  and  _305
REMARK  123  A    between atoms: _308  and  _310
REMARK  124  A    between atoms: _310  and  _311
REMARK  125  A    between atoms: _310  and  _313
REMARK  126  A    between atoms: _313  and  _314
REMARK  127  A    between atoms: _314  and  _315
REMARK  128  A    between atoms: _315  and  CA_629
REMARK  129  A    between atoms: _317  and  _319
REMARK  130  A    between atoms: _319  and  _320
REMARK  131  A    between atoms: _319  and  _322
REMARK  132  A    between atoms: _322  and  _323
REMARK  133  A    between atoms: _326  and  _328
REMARK  134  A    between atoms: _328  and  _329
REMARK  135  A    between atoms: _328  and  _331
REMARK  136  A    between atoms: _331  and  _332
REMARK  137  A    between atoms: _335  and  _337
REMARK  138  A    between atoms: _337  and  _338
REMARK  139  A    between atoms: _337  and  _340
REMARK  140  A    between atoms: _343  and  _345
REMARK  141  A    between atoms: _345  and  _346
REMARK  142  A    between atoms: _345  and  _348
REMARK  143  A    between atoms: _348  and  _349
REMARK  144  A    between atoms: _352  and  _354
REMARK  145  A    between atoms: _354  and  _355
REMARK  146  A    between atoms: _358  and  _359
REMARK  147  A    between atoms: _364  and  _366
REMARK  148  A    between atoms: _366  and  _367
REMARK  149  A    between atoms: _370  and  _372
REMARK  150  A    between atoms: _372  and  _373
REMARK  151  A    between atoms: _372  and  _375
REMARK  152  A    between atoms: _375  and  _376
REMARK  153  A    between atoms: _376  and  _377
REMARK  154  A    between atoms: _377  and  _378
REMARK  155  A    between atoms: _387  and  _389
REMARK  156  A    between atoms: _389  and  _390
REMARK  157  A    between atoms: _389  and  _392
REMARK  158  A    between atoms: _392  and  _393
REMARK  159  A    between atoms: _396  and  _398
REMARK  160  A    between atoms: _398  and  _399
REMARK  161  A    between atoms: _402  and  _404
REMARK  162  A    between atoms: _404  and  _405
REMARK  163  A    between atoms: _404  and  _407
REMARK  164  A    between atoms: _407  and  _408
REMARK  165  A    between atoms: _408  and  _409
REMARK  166  A    between atoms: _412  and  _414
REMARK  167  A    between atoms: _414  and  _415
REMARK  168  A    between atoms: _414  and  _417
REMARK  169  A    between atoms: _417  and  _418
REMARK  170  A    between atoms: _428  and  _430
REMARK  171  A    between atoms: _430  and  _431
REMARK  172  A    between atoms: _434  and  _436
REMARK  173  A    between atoms: _436  and  _437
REMARK  174  A    between atoms: _436  and  _439
REMARK  175  A    between atoms: _439  and  _440
REMARK  176  A    between atoms: _442  and  _444
REMARK  177  A    between atoms: _444  and  _445
REMARK  178  A    between atoms: _447  and  _449
REMARK  179  A    between atoms: _449  and  _450
REMARK  180  A    between atoms: _449  and  _452
REMARK  181  A    between atoms: _452  and  _453
REMARK  182  A    between atoms: _458  and  _460
REMARK  183  A    between atoms: _460  and  _461
REMARK  184  A    between atoms: _463  and  _465
REMARK  185  A    between atoms: _465  and  _466
REMARK  186  A    between atoms: _465  and  _468
REMARK  187  A    between atoms: _468  and  _469
REMARK  188  A    between atoms: _469  and  _471
REMARK  189  A    between atoms: _471  and  CA_629
REMARK  190  A    between atoms: _472  and  _474
REMARK  191  A    between atoms: _474  and  _475
REMARK  192  A    between atoms: _474  and  _477
REMARK  193  A    between atoms: _477  and  _478
REMARK  194  A    between atoms: _480  and  _482
REMARK  195  A    between atoms: _482  and  _483
REMARK  196  A    between atoms: _482  and  _485
REMARK  197  A    between atoms: _487  and  _489
REMARK  198  A    between atoms: _489  and  _490
REMARK  199  A    between atoms: _489  and  _492
REMARK  200  A    between atoms: _494  and  _496
REMARK  201  A    between atoms: _496  and  _497
REMARK  202  A    between atoms: _496  and  _499
REMARK  203  A    between atoms: _499  and  _500
REMARK  204  A    between atoms: _503  and  _505
REMARK  205  A    between atoms: _505  and  _506
REMARK  206  A    between atoms: _508  and  _510
REMARK  207  A    between atoms: _510  and  _511
REMARK  208  A    between atoms: _510  and  _513
REMARK  209  A    between atoms: _513  and  _514
REMARK  210  A    between atoms: _519  and  _520
REMARK  211  A    between atoms: _522  and  _524
REMARK  212  A    between atoms: _524  and  _525
REMARK  213  A    between atoms: _524  and  _527
REMARK  214  A    between atoms: _527  and  _528
REMARK  215  A    between atoms: _531  and  _533
REMARK  216  A    between atoms: _533  and  _534
REMARK  217  A    between atoms: _533  and  _536
REMARK  218  A    between atoms: _536  and  _537
REMARK  219  A    between atoms: _542  and  _544
REMARK  220  A    between atoms: _544  and  _545
REMARK  221  A    between atoms: _544  and  _547
REMARK  222  A    between atoms: _547  and  _548
REMARK  223  A    between atoms: _551  and  _553
REMARK  224  A    between atoms: _553  and  _554
REMARK  225  A    between atoms: _553  and  _556
REMARK  226  A    between atoms: _556  and  _557
REMARK  227  A    between atoms: _559  and  _561
REMARK  228  A    between atoms: _561  and  _562
REMARK  229  A    between atoms: _561  and  _564
REMARK  230  A    between atoms: _564  and  _565
REMARK  231  A    between atoms: _568  and  _570
REMARK  232  A    between atoms: _570  and  _571
REMARK  233  A    between atoms: _570  and  _573
REMARK  234  A    between atoms: _573  and  _574
REMARK  235  A    between atoms: _574  and  _575
REMARK  236  A    between atoms: _578  and  _580
REMARK  237  A    between atoms: _580  and  _581
REMARK  238  A    between atoms: _580  and  _583
REMARK  239  A    between atoms: _583  and  _584
REMARK  240  A    between atoms: _587  and  _589
REMARK  241  A    between atoms: _589  and  _590
REMARK  242  A    between atoms: _592  and  _594
REMARK  243  A    between atoms: _594  and  _595
REMARK  244  A    between atoms: _594  and  _597
REMARK  245  A    between atoms: _597  and  _598
REMARK  246  A    between atoms: _601  and  _603
REMARK  247  A    between atoms: _603  and  _604
REMARK  248  A    between atoms: _603  and  _606
REMARK  249  A    between atoms: _606  and  _607
REMARK  250  A    between atoms: _609  and  _611
REMARK  251  A    between atoms: _611  and  _612
REMARK  252  A    between atoms: _615  and  _617
REMARK  253  A    between atoms: _617  and  _618
REMARK  254  A    between atoms: _617  and  _620
REMARK  255  A    between atoms: _620  and  _621
REMARK  256  A    between atoms: _623  and  _625
REMARK  257  A    between atoms: _625  and  _626
REMARK                            x       y       z     vdW  Elec       q    Type
REMARK                         _______ _______ _______ _____ _____    ______ ____
ROOT
ATOM      1  CA  ASP A   2      30.090  36.342   1.324  0.00  0.00    +0.160 C 
ENDROOT
BRANCH   1   4
ATOM      2  C   ASP A   1      29.312  34.220   2.244  0.00  0.00    +0.239 C 
ATOM      3  O   ASP A   1      30.467  33.805   2.369  0.00  0.00    -0.274 OA
ATOM      4  N   ASP A   2      29.029  35.432   1.766  0.00  0.00    -0.297 N 
ATOM      5  H   ASP A   2      28.037  35.738   1.706  0.00  0.00    +0.150 HD
BRANCH   2   6
ATOM      6  CA  ASP A   1      28.125  33.348   2.655  0.00  0.00    +0.156 C 
BRANCH   6   7
ATOM      7  N   ASP A   1      28.365  32.585   3.871  0.00  0.00    -0.238 NA
ATOM      8  H   ASP A   1      29.063  32.919   4.566  0.00  0.00    +0.142 HD
ENDBRANCH   6   7
BRANCH   6   9
ATOM      9  CB  ASP A   1      26.880  34.212   2.884  0.00  0.00    +0.140 C 
BRANCH   9  10
ATOM     10  CG  ASP A   1      26.084  34.446   1.613  0.00  0.00    +0.367 C 
ATOM     11  OD2 ASP A   1      25.165  33.644   1.349  0.00  0.00    -0.246 OA
ATOM     12  OD1 ASP A   1      26.376  35.413   0.871  0.00  0.00    -0.246 OA
ENDBRANCH   9  10
ENDBRANCH   6   9
ENDBRANCH   2   6
ENDBRANCH   1   4
BRANCH   1  13
ATOM     13  C   ASP A   2      30.528  37.342   2.383  0.00  0.00    +0.241 C 
ATOM     14  N   GLY A   3      30.163  37.068   3.632  0.00  0.00    -0.296 N 
ATOM     15  H   GLY A   3      29.607  36.211   3.826  0.00  0.00    +0.150 HD
ATOM     16  O   ASP A   2      31.191  38.335   2.073  0.00  0.00    -0.273 OA
BRANCH  14  17
ATOM     17  CA  GLY A   3      30.528  37.946   4.730  0.00  0.00    +0.163 C 
BRANCH  17  18
ATOM     18  C   GLY A   3      29.317  38.514   5.449  0.00  0.00    +0.229 C 
ATOM     19  O   GLY A   3      28.173  38.347   5.007  0.00  0.00    -0.286 OA
ENDBRANCH  17  18
ENDBRANCH  14  17
ENDBRANCH   1  13
BRANCH   1  20
ATOM     20  CB  ASP A   2      29.688  37.093   0.042  0.00  0.00    +0.143 C 
BRANCH  20  21
ATOM     21  CG  ASP A   2      28.470  37.981   0.220  0.00  0.00    +0.367 C 
ATOM     22  OD2 ASP A   2      28.019  38.194   1.365  0.00  0.00    -0.246 OA
ATOM     23  OD1 ASP A   2      27.964  38.475  -0.811  0.00  0.00    -0.246 OA
ENDBRANCH  20  21
ENDBRANCH   1  20
TORSDOF 10
REMARK  Name = ../refined-set-2016/4omc/4omc_pocket.pdb
REMARK  257 active torsions:
REMARK  status: ('A' for Active; 'I' for Inactive)
REMARK    1  A    between atoms: _1  and  _3
REMARK    2  A    between atoms: _3  and  _4
REMARK    3  A    between atoms: _3  and  _6
REMARK    4  A    between atoms: _6  and  _7
REMARK    5  A    between atoms: _10  and  _12
REMARK    6  A    between atoms: _12  and  _13
REMARK    7  A    between atoms: _12  and  _15
REMARK    8  A    between atoms: _15  and  _16
REMARK    9  A    between atoms: _19  and  _21
REMARK   10  A    between atoms: _21  and  _22
REMARK   11  A    between atoms: _24  and  _26
REMARK   12  A    between atoms: _26  and  _27
REMARK   13  A    between atoms: _26  and  _29
REMARK   14  A    between atoms: _29  and  _30
REMARK   15  A    between atoms: _35  and  _37
REMARK   16  A    between atoms: _37  and  _38
REMARK   17  A    between atoms: _37  and  _40
REMARK   18  A    between atoms: _40  and  _41
REMARK   19  A    between atoms: _41  and  _42
REMARK   20  A    between atoms: _42  and  _43
REMARK   21  A    between atoms: _52  and  _54
REMARK   22  A    between atoms: _54  and  _55
REMARK   23  A    between atoms: _54  and  _57
REMARK   24  A    between atoms: _57  and  _58
REMARK   25  A    between atoms: _61  and  _63
REMARK   26  A    between atoms: _63  and  _64
REMARK   27  A    between atoms: _63  and  _66
REMARK   28  A    between atoms: _66  and  _67
REMARK   29  A    between atoms: _72  and  _74
REMARK   30  A    between atoms: _74  and  _75
REMARK   31  A    between atoms: _74  and  _77
REMARK   32  A    between atoms: _77  and  _78
REMARK   33  A    between atoms: _81  and  _83
REMARK   34  A    between atoms: _83  and  _84
REMARK   35  A    between atoms: _83  and  _86
REMARK   36  A    between atoms: _86  and  _87
REMARK   37  A    between atoms: _92  and  _94
REMARK   38  A    between atoms: _94  and  _95
REMARK   39  A    between atoms: _94  and  _97
REMARK   40  A    between atoms: _97  and  _98
REMARK   41  A    between atoms: _98  and  _99
REMARK   42  A    between atoms: _99  and  _100
REMARK   43  A    between atoms: _109  and  _111
REMARK   44  A    between atoms: _111  and  _112
REMARK   45  A    between atoms: _111  and  _114
REMARK   46  A    between atoms: _114  and  _115
REMARK   47  A    between atoms: _120  and  _122
REMARK   48  A    between atoms: _122  and  _123
REMARK   49  A    between atoms: _125  and  _127
REMARK   50  A    between atoms: _127  and  _128
REMARK   51  A    between atoms: _127  and  _130
REMARK   52  A    between atoms: _130  and  _131
REMARK   53  A    between atoms: _134  and  _136
REMARK   54  A    between atoms: _136  and  _137
REMARK   55  A    between atoms: _136  and  _139
REMARK   56  A    between atoms: _141  and  _143
REMARK   57  A    between atoms: _143  and  _144
REMARK   58  A    between atoms: _143  and  _146
REMARK   59  A    between atoms: _146  and  _147
REMARK   60  A    between atoms: _147  and  _148
REMARK   61  A    between atoms: _148  and  _149
REMARK   62  A    between atoms: _158  and  _160
REMARK   63  A    between atoms: _160  and  _161
REMARK   64  A    between atoms: _160  and  _163
REMARK   65  A    between atoms: _163  and  _164
REMARK   66  A    between atoms: _164  and  _165
REMARK   67  A    between atoms: _167  and  _169
REMARK   68  A    between atoms: _169  and  _170
REMARK   69  A    between atoms: _169  and  _172
REMARK   70  A    between atoms: _172  and  _173
REMARK   71  A    between atoms: _176  and  _178
REMARK   72  A    between atoms: _178  and  _179
REMARK   73  A    between atoms: _178  and  _181
REMARK   74  A    between atoms: _181  and  _182
REMARK   75  A    between atoms: _185  and  _187
REMARK   76  A    between atoms: _187  and  _188
REMARK   77  A    between atoms: _190  and  _192
REMARK   78  A    between atoms: _192  and  _193
REMARK   79  A    between atoms: _192  and  _195
REMARK   80  A    between atoms: _195  and  _196
REMARK   81  A    between atoms: _196  and  _197
REMARK   82  A    between atoms: _200  and  _202
REMARK   83  A    between atoms: _202  and  _203
REMARK   84  A    between atoms: _202  and  _205
REMARK   85  A    between atoms: _208  and  _210
REMARK   86  A    between atoms: _210  and  _211
REMARK   87  A    between atoms: _210  and  _213
REMARK   88  A    between atoms: _213  and  _214
REMARK   89  A    between atoms: _217  and  _219
REMARK   90  A    between atoms: _219  and  _220
REMARK   91  A    between atoms: _219  and  _222
REMARK   92  A    between atoms: _222  and  _223
REMARK   93  A    between atoms: _226  and  _228
REMARK   94  A    between atoms: _228  and  _229
REMARK   95  A    between atoms: _232  and  _234
REMARK   96  A    between atoms: _234  and  _235
REMARK   97  A    between atoms: _234  and  _237
REMARK   98  A    between atoms: _240  and  _242
REMARK   99  A    between atoms: _242  and  _243
REMARK  100  A    between atoms: _242  and  _245
REMARK  101  A    between atoms: _245  and  _246
REMARK  102  A    between atoms: _246  and  _247
REMARK  103  A    between atoms: _250  and  _252
REMARK  104  A    between atoms: _252  and  _253
REMARK  105  A    between atoms: _256  and  _258
REMARK  106  A    between atoms: _258  and  _259
REMARK  107  A    between atoms: _262  and  _264
REMARK  108  A    between atoms: _264  and  _265
REMARK  109  A    between atoms: _264  and  _267
REMARK  110  A    between atoms: _267  and  _268
REMARK  111  A    between atoms: _270  and  _272
REMARK  112  A    between atoms: _272  and  _273
REMARK  113  A    between atoms: _272  and  _275
REMARK  114  A    between atoms: _275  and  _276
REMARK  115  A    between atoms: _286  and  _288
REMARK  116  A    between atoms: _288  and  _289
REMARK  117  A    between atoms: _292  and  _293
REMARK  118  A    between atoms: _298  and  _300
REMARK  119  A    between atoms: _300  and  _301
REMARK  120  A    between atoms: _300  and  _303
REMARK  121  A    between atoms: _303  and  _304
REMARK  122  A    between atoms: _304  and  _305
REMARK  123  A    between atoms: _308  and  _310
REMARK  124  A    between atoms: _310  and  _311
REMARK  125  A    between atoms: _310  and  _313
REMARK  126  A    between atoms: _313  and  _314
REMARK  127  A    between atoms: _314  and  _315
REMARK  128  A    between atoms: _315  and  CA_629
REMARK  129  A    between atoms: _317  and  _319
REMARK  130  A    between atoms: _319  and  _320
REMARK  131  A    between atoms: _319  and  _322
REMARK  132  A    between atoms: _322  and  _323
REMARK  133  A    between atoms: _326  and  _328
REMARK  134  A    between atoms: _328  and  _329
REMARK  135  A    between atoms: _328  and  _331
REMARK  136  A    between atoms: _331  and  _332
REMARK  137  A    between atoms: _335  and  _337
REMARK  138  A    between atoms: _337  and  _338
REMARK  139  A    between atoms: _337  and  _340
REMARK  140  A    between atoms: _343  and  _345
REMARK  141  A    between atoms: _345  and  _346
REMARK  142  A    between atoms: _345  and  _348
REMARK  143  A    between atoms: _348  and  _349
REMARK  144  A    between atoms: _352  and  _354
REMARK  145  A    between atoms: _354  and  _355
REMARK  146  A    between atoms: _358  and  _359
REMARK  147  A    between atoms: _364  and  _366
REMARK  148  A    between atoms: _366  and  _367
REMARK  149  A    between atoms: _370  and  _372
REMARK  150  A    between atoms: _372  and  _373
REMARK  151  A    between atoms: _372  and  _375
REMARK  152  A    between atoms: _375  and  _376
REMARK  153  A    between atoms: _376  and  _377
REMARK  154  A    between atoms: _377  and  _378
REMARK  155  A    between atoms: _387  and  _389
REMARK  156  A    between atoms: _389  and  _390
REMARK  157  A    between atoms: _389  and  _392
REMARK  158  A    between atoms: _392  and  _393
REMARK  159  A    between atoms: _396  and  _398
REMARK  160  A    between atoms: _398  and  _399
REMARK  161  A    between atoms: _402  and  _404
REMARK  162  A    between atoms: _404  and  _405
REMARK  163  A    between atoms: _404  and  _407
REMARK  164  A    between atoms: _407  and  _408
REMARK  165  A    between atoms: _408  and  _409
REMARK  166  A    between atoms: _412  and  _414
REMARK  167  A    between atoms: _414  and  _415
REMARK  168  A    between atoms: _414  and  _417
REMARK  169  A    between atoms: _417  and  _418
REMARK  170  A    between atoms: _428  and  _430
REMARK  171  A    between atoms: _430  and  _431
REMARK  172  A    between atoms: _434  and  _436
REMARK  173  A    between atoms: _436  and  _437
REMARK  174  A    between atoms: _436  and  _439
REMARK  175  A    between atoms: _439  and  _440
REMARK  176  A    between atoms: _442  and  _444
REMARK  177  A    between atoms: _444  and  _445
REMARK  178  A    between atoms: _447  and  _449
REMARK  179  A    between atoms: _449  and  _450
REMARK  180  A    between atoms: _449  and  _452
REMARK  181  A    between atoms: _452  and  _453
REMARK  182  A    between atoms: _458  and  _460
REMARK  183  A    between atoms: _460  and  _461
REMARK  184  A    between atoms: _463  and  _465
REMARK  185  A    between atoms: _465  and  _466
REMARK  186  A    between atoms: _465  and  _468
REMARK  187  A    between atoms: _468  and  _469
REMARK  188  A    between atoms: _469  and  _471
REMARK  189  A    between atoms: _471  and  CA_629
REMARK  190  A    between atoms: _472  and  _474
REMARK  191  A    between atoms: _474  and  _475
REMARK  192  A    between atoms: _474  and  _477
REMARK  193  A    between atoms: _477  and  _478
REMARK  194  A    between atoms: _480  and  _482
REMARK  195  A    between atoms: _482  and  _483
REMARK  196  A    between atoms: _482  and  _485
REMARK  197  A    between atoms: _487  and  _489
REMARK  198  A    between atoms: _489  and  _490
REMARK  199  A    between atoms: _489  and  _492
REMARK  200  A    between atoms: _494  and  _496
REMARK  201  A    between atoms: _496  and  _497
REMARK  202  A    between atoms: _496  and  _499
REMARK  203  A    between atoms: _499  and  _500
REMARK  204  A    between atoms: _503  and  _505
REMARK  205  A    between atoms: _505  and  _506
REMARK  206  A    between atoms: _508  and  _510
REMARK  207  A    between atoms: _510  and  _511
REMARK  208  A    between atoms: _510  and  _513
REMARK  209  A    between atoms: _513  and  _514
REMARK  210  A    between atoms: _519  and  _520
REMARK  211  A    between atoms: _522  and  _524
REMARK  212  A    between atoms: _524  and  _525
REMARK  213  A    between atoms: _524  and  _527
REMARK  214  A    between atoms: _527  and  _528
REMARK  215  A    between atoms: _531  and  _533
REMARK  216  A    between atoms: _533  and  _534
REMARK  217  A    between atoms: _533  and  _536
REMARK  218  A    between atoms: _536  and  _537
REMARK  219  A    between atoms: _542  and  _544
REMARK  220  A    between atoms: _544  and  _545
REMARK  221  A    between atoms: _544  and  _547
REMARK  222  A    between atoms: _547  and  _548
REMARK  223  A    between atoms: _551  and  _553
REMARK  224  A    between atoms: _553  and  _554
REMARK  225  A    between atoms: _553  and  _556
REMARK  226  A    between atoms: _556  and  _557
REMARK  227  A    between atoms: _559  and  _561
REMARK  228  A    between atoms: _561  and  _562
REMARK  229  A    between atoms: _561  and  _564
REMARK  230  A    between atoms: _564  and  _565
REMARK  231  A    between atoms: _568  and  _570
REMARK  232  A    between atoms: _570  and  _571
REMARK  233  A    between atoms: _570  and  _573
REMARK  234  A    between atoms: _573  and  _574
REMARK  235  A    between atoms: _574  and  _575
REMARK  236  A    between atoms: _578  and  _580
REMARK  237  A    between atoms: _580  and  _581
REMARK  238  A    between atoms: _580  and  _583
REMARK  239  A    between atoms: _583  and  _584
REMARK  240  A    between atoms: _587  and  _589
REMARK  241  A    between atoms: _589  and  _590
REMARK  242  A    between atoms: _592  and  _594
REMARK  243  A    between atoms: _594  and  _595
REMARK  244  A    between atoms: _594  and  _597
REMARK  245  A    between atoms: _597  and  _598
REMARK  246  A    between atoms: _601  and  _603
REMARK  247  A    between atoms: _603  and  _604
REMARK  248  A    between atoms: _603  and  _606
REMARK  249  A    between atoms: _606  and  _607
REMARK  250  A    between atoms: _609  and  _611
REMARK  251  A    between atoms: _611  and  _612
REMARK  252  A    between atoms: _615  and  _617
REMARK  253  A    between atoms: _617  and  _618
REMARK  254  A    between atoms: _617  and  _620
REMARK  255  A    between atoms: _620  and  _621
REMARK  256  A    between atoms: _623  and  _625
REMARK  257  A    between atoms: _625  and  _626
REMARK                            x       y       z     vdW  Elec       q    Type
REMARK                         _______ _______ _______ _____ _____    ______ ____
ROOT
ATOM      1  CB  ASN A   1      37.626  34.510   1.587  0.00  0.00    +0.110 C 
ENDROOT
BRANCH   1   2
ATOM      2  CG  ASN A   1      36.396  33.862   0.931  0.00  0.00    +0.221 C 
ATOM      3  OD1 ASN A   1      35.300  34.429   0.958  0.00  0.00    -0.275 OA
ATOM      4  ND2 ASN A   1      36.579  32.696   0.325  0.00  0.00    -0.329 N 
ATOM      5 HD21 ASN A   1      37.519  32.252   0.325  0.00  0.00    +0.145 HD
ATOM      6 HD22 ASN A   1      35.782  32.226  -0.150  0.00  0.00    +0.145 HD
ENDBRANCH   1   2
BRANCH   1   7
ATOM      7  CA  ASN A   1      38.561  33.497   2.260  0.00  0.00    +0.142 C 
BRANCH   7   8
ATOM      8  N   ASN A   1      37.963  32.989   3.493  0.00  0.00    -0.239 NA
ATOM      9  H   ASN A   1      37.069  33.398   3.832  0.00  0.00    +0.142 HD
ENDBRANCH   7   8
BRANCH   7  10
ATOM     10  C   ASN A   1      39.931  34.156   2.496  0.00  0.00    +0.225 C 
ATOM     11  O   ASN A   1      40.859  33.933   1.722  0.00  0.00    -0.287 OA
ENDBRANCH   7  10
ENDBRANCH   1   7
TORSDOF 4
REMARK  Name = ../refined-set-2016/4omc/4omc_pocket.pdb
REMARK  257 active torsions:
REMARK  status: ('A' for Active; 'I' for Inactive)
REMARK    1  A    between atoms: _1  and  _3
REMARK    2  A    between atoms: _3  and  _4
REMARK    3  A    between atoms: _3  and  _6
REMARK    4  A    between atoms: _6  and  _7
REMARK    5  A    between atoms: _10  and  _12
REMARK    6  A    between atoms: _12  and  _13
REMARK    7  A    between atoms: _12  and  _15
REMARK    8  A    between atoms: _15  and  _16
REMARK    9  A    between atoms: _19  and  _21
REMARK   10  A    between atoms: _21  and  _22
REMARK   11  A    between atoms: _24  and  _26
REMARK   12  A    between atoms: _26  and  _27
REMARK   13  A    between atoms: _26  and  _29
REMARK   14  A    between atoms: _29  and  _30
REMARK   15  A    between atoms: _35  and  _37
REMARK   16  A    between atoms: _37  and  _38
REMARK   17  A    between atoms: _37  and  _40
REMARK   18  A    between atoms: _40  and  _41
REMARK   19  A    between atoms: _41  and  _42
REMARK   20  A    between atoms: _42  and  _43
REMARK   21  A    between atoms: _52  and  _54
REMARK   22  A    between atoms: _54  and  _55
REMARK   23  A    between atoms: _54  and  _57
REMARK   24  A    between atoms: _57  and  _58
REMARK   25  A    between atoms: _61  and  _63
REMARK   26  A    between atoms: _63  and  _64
REMARK   27  A    between atoms: _63  and  _66
REMARK   28  A    between atoms: _66  and  _67
REMARK   29  A    between atoms: _72  and  _74
REMARK   30  A    between atoms: _74  and  _75
REMARK   31  A    between atoms: _74  and  _77
REMARK   32  A    between atoms: _77  and  _78
REMARK   33  A    between atoms: _81  and  _83
REMARK   34  A    between atoms: _83  and  _84
REMARK   35  A    between atoms: _83  and  _86
REMARK   36  A    between atoms: _86  and  _87
REMARK   37  A    between atoms: _92  and  _94
REMARK   38  A    between atoms: _94  and  _95
REMARK   39  A    between atoms: _94  and  _97
REMARK   40  A    between atoms: _97  and  _98
REMARK   41  A    between atoms: _98  and  _99
REMARK   42  A    between atoms: _99  and  _100
REMARK   43  A    between atoms: _109  and  _111
REMARK   44  A    between atoms: _111  and  _112
REMARK   45  A    between atoms: _111  and  _114
REMARK   46  A    between atoms: _114  and  _115
REMARK   47  A    between atoms: _120  and  _122
REMARK   48  A    between atoms: _122  and  _123
REMARK   49  A    between atoms: _125  and  _127
REMARK   50  A    between atoms: _127  and  _128
REMARK   51  A    between atoms: _127  and  _130
REMARK   52  A    between atoms: _130  and  _131
REMARK   53  A    between atoms: _134  and  _136
REMARK   54  A    between atoms: _136  and  _137
REMARK   55  A    between atoms: _136  and  _139
REMARK   56  A    between atoms: _141  and  _143
REMARK   57  A    between atoms: _143  and  _144
REMARK   58  A    between atoms: _143  and  _146
REMARK   59  A    between atoms: _146  and  _147
REMARK   60  A    between atoms: _147  and  _148
REMARK   61  A    between atoms: _148  and  _149
REMARK   62  A    between atoms: _158  and  _160
REMARK   63  A    between atoms: _160  and  _161
REMARK   64  A    between atoms: _160  and  _163
REMARK   65  A    between atoms: _163  and  _164
REMARK   66  A    between atoms: _164  and  _165
REMARK   67  A    between atoms: _167  and  _169
REMARK   68  A    between atoms: _169  and  _170
REMARK   69  A    between atoms: _169  and  _172
REMARK   70  A    between atoms: _172  and  _173
REMARK   71  A    between atoms: _176  and  _178
REMARK   72  A    between atoms: _178  and  _179
REMARK   73  A    between atoms: _178  and  _181
REMARK   74  A    between atoms: _181  and  _182
REMARK   75  A    between atoms: _185  and  _187
REMARK   76  A    between atoms: _187  and  _188
REMARK   77  A    between atoms: _190  and  _192
REMARK   78  A    between atoms: _192  and  _193
REMARK   79  A    between atoms: _192  and  _195
REMARK   80  A    between atoms: _195  and  _196
REMARK   81  A    between atoms: _196  and  _197
REMARK   82  A    between atoms: _200  and  _202
REMARK   83  A    between atoms: _202  and  _203
REMARK   84  A    between atoms: _202  and  _205
REMARK   85  A    between atoms: _208  and  _210
REMARK   86  A    between atoms: _210  and  _211
REMARK   87  A    between atoms: _210  and  _213
REMARK   88  A    between atoms: _213  and  _214
REMARK   89  A    between atoms: _217  and  _219
REMARK   90  A    between atoms: _219  and  _220
REMARK   91  A    between atoms: _219  and  _222
REMARK   92  A    between atoms: _222  and  _223
REMARK   93  A    between atoms: _226  and  _228
REMARK   94  A    between atoms: _228  and  _229
REMARK   95  A    between atoms: _232  and  _234
REMARK   96  A    between atoms: _234  and  _235
REMARK   97  A    between atoms: _234  and  _237
REMARK   98  A    between atoms: _240  and  _242
REMARK   99  A    between atoms: _242  and  _243
REMARK  100  A    between atoms: _242  and  _245
REMARK  101  A    between atoms: _245  and  _246
REMARK  102  A    between atoms: _246  and  _247
REMARK  103  A    between atoms: _250  and  _252
REMARK  104  A    between atoms: _252  and  _253
REMARK  105  A    between atoms: _256  and  _258
REMARK  106  A    between atoms: _258  and  _259
REMARK  107  A    between atoms: _262  and  _264
REMARK  108  A    between atoms: _264  and  _265
REMARK  109  A    between atoms: _264  and  _267
REMARK  110  A    between atoms: _267  and  _268
REMARK  111  A    between atoms: _270  and  _272
REMARK  112  A    between atoms: _272  and  _273
REMARK  113  A    between atoms: _272  and  _275
REMARK  114  A    between atoms: _275  and  _276
REMARK  115  A    between atoms: _286  and  _288
REMARK  116  A    between atoms: _288  and  _289
REMARK  117  A    between atoms: _292  and  _293
REMARK  118  A    between atoms: _298  and  _300
REMARK  119  A    between atoms: _300  and  _301
REMARK  120  A    between atoms: _300  and  _303
REMARK  121  A    between atoms: _303  and  _304
REMARK  122  A    between atoms: _304  and  _305
REMARK  123  A    between atoms: _308  and  _310
REMARK  124  A    between atoms: _310  and  _311
REMARK  125  A    between atoms: _310  and  _313
REMARK  126  A    between atoms: _313  and  _314
REMARK  127  A    between atoms: _314  and  _315
REMARK  128  A    between atoms: _315  and  CA_629
REMARK  129  A    between atoms: _317  and  _319
REMARK  130  A    between atoms: _319  and  _320
REMARK  131  A    between atoms: _319  and  _322
REMARK  132  A    between atoms: _322  and  _323
REMARK  133  A    between atoms: _326  and  _328
REMARK  134  A    between atoms: _328  and  _329
REMARK  135  A    between atoms: _328  and  _331
REMARK  136  A    between atoms: _331  and  _332
REMARK  137  A    between atoms: _335  and  _337
REMARK  138  A    between atoms: _337  and  _338
REMARK  139  A    between atoms: _337  and  _340
REMARK  140  A    between atoms: _343  and  _345
REMARK  141  A    between atoms: _345  and  _346
REMARK  142  A    between atoms: _345  and  _348
REMARK  143  A    between atoms: _348  and  _349
REMARK  144  A    between atoms: _352  and  _354
REMARK  145  A    between atoms: _354  and  _355
REMARK  146  A    between atoms: _358  and  _359
REMARK  147  A    between atoms: _364  and  _366
REMARK  148  A    between atoms: _366  and  _367
REMARK  149  A    between atoms: _370  and  _372
REMARK  150  A    between atoms: _372  and  _373
REMARK  151  A    between atoms: _372  and  _375
REMARK  152  A    between atoms: _375  and  _376
REMARK  153  A    between atoms: _376  and  _377
REMARK  154  A    between atoms: _377  and  _378
REMARK  155  A    between atoms: _387  and  _389
REMARK  156  A    between atoms: _389  and  _390
REMARK  157  A    between atoms: _389  and  _392
REMARK  158  A    between atoms: _392  and  _393
REMARK  159  A    between atoms: _396  and  _398
REMARK  160  A    between atoms: _398  and  _399
REMARK  161  A    between atoms: _402  and  _404
REMARK  162  A    between atoms: _404  and  _405
REMARK  163  A    between atoms: _404  and  _407
REMARK  164  A    between atoms: _407  and  _408
REMARK  165  A    between atoms: _408  and  _409
REMARK  166  A    between atoms: _412  and  _414
REMARK  167  A    between atoms: _414  and  _415
REMARK  168  A    between atoms: _414  and  _417
REMARK  169  A    between atoms: _417  and  _418
REMARK  170  A    between atoms: _428  and  _430
REMARK  171  A    between atoms: _430  and  _431
REMARK  172  A    between atoms: _434  and  _436
REMARK  173  A    between atoms: _436  and  _437
REMARK  174  A    between atoms: _436  and  _439
REMARK  175  A    between atoms: _439  and  _440
REMARK  176  A    between atoms: _442  and  _444
REMARK  177  A    between atoms: _444  and  _445
REMARK  178  A    between atoms: _447  and  _449
REMARK  179  A    between atoms: _449  and  _450
REMARK  180  A    between atoms: _449  and  _452
REMARK  181  A    between atoms: _452  and  _453
REMARK  182  A    between atoms: _458  and  _460
REMARK  183  A    between atoms: _460  and  _461
REMARK  184  A    between atoms: _463  and  _465
REMARK  185  A    between atoms: _465  and  _466
REMARK  186  A    between atoms: _465  and  _468
REMARK  187  A    between atoms: _468  and  _469
REMARK  188  A    between atoms: _469  and  _471
REMARK  189  A    between atoms: _471  and  CA_629
REMARK  190  A    between atoms: _472  and  _474
REMARK  191  A    between atoms: _474  and  _475
REMARK  192  A    between atoms: _474  and  _477
REMARK  193  A    between atoms: _477  and  _478
REMARK  194  A    between atoms: _480  and  _482
REMARK  195  A    between atoms: _482  and  _483
REMARK  196  A    between atoms: _482  and  _485
REMARK  197  A    between atoms: _487  and  _489
REMARK  198  A    between atoms: _489  and  _490
REMARK  199  A    between atoms: _489  and  _492
REMARK  200  A    between atoms: _494  and  _496
REMARK  201  A    between atoms: _496  and  _497
REMARK  202  A    between atoms: _496  and  _499
REMARK  203  A    between atoms: _499  and  _500
REMARK  204  A    between atoms: _503  and  _505
REMARK  205  A    between atoms: _505  and  _506
REMARK  206  A    between atoms: _508  and  _510
REMARK  207  A    between atoms: _510  and  _511
REMARK  208  A    between atoms: _510  and  _513
REMARK  209  A    between atoms: _513  and  _514
REMARK  210  A    between atoms: _519  and  _520
REMARK  211  A    between atoms: _522  and  _524
REMARK  212  A    between atoms: _524  and  _525
REMARK  213  A    between atoms: _524  and  _527
REMARK  214  A    between atoms: _527  and  _528
REMARK  215  A    between atoms: _531  and  _533
REMARK  216  A    between atoms: _533  and  _534
REMARK  217  A    between atoms: _533  and  _536
REMARK  218  A    between atoms: _536  and  _537
REMARK  219  A    between atoms: _542  and  _544
REMARK  220  A    between atoms: _544  and  _545
REMARK  221  A    between atoms: _544  and  _547
REMARK  222  A    between atoms: _547  and  _548
REMARK  223  A    between atoms: _551  and  _553
REMARK  224  A    between atoms: _553  and  _554
REMARK  225  A    between atoms: _553  and  _556
REMARK  226  A    between atoms: _556  and  _557
REMARK  227  A    between atoms: _559  and  _561
REMARK  228  A    between atoms: _561  and  _562
REMARK  229  A    between atoms: _561  and  _564
REMARK  230  A    between atoms: _564  and  _565
REMARK  231  A    between atoms: _568  and  _570
REMARK  232  A    between atoms: _570  and  _571
REMARK  233  A    between atoms: _570  and  _573
REMARK  234  A    between atoms: _573  and  _574
REMARK  235  A    between atoms: _574  and  _575
REMARK  236  A    between atoms: _578  and  _580
REMARK  237  A    between atoms: _580  and  _581
REMARK  238  A    between atoms: _580  and  _583
REMARK  239  A    between atoms: _583  and  _584
REMARK  240  A    between atoms: _587  and  _589
REMARK  241  A    between atoms: _589  and  _590
REMARK  242  A    between atoms: _592  and  _594
REMARK  243  A    between atoms: _594  and  _595
REMARK  244  A    between atoms: _594  and  _597
REMARK  245  A    between atoms: _597  and  _598
REMARK  246  A    between atoms: _601  and  _603
REMARK  247  A    between atoms: _603  and  _604
REMARK  248  A    between atoms: _603  and  _606
REMARK  249  A    between atoms: _606  and  _607
REMARK  250  A    between atoms: _609  and  _611
REMARK  251  A    between atoms: _611  and  _612
REMARK  252  A    between atoms: _615  and  _617
REMARK  253  A    between atoms: _617  and  _618
REMARK  254  A    between atoms: _617  and  _620
REMARK  255  A    between atoms: _620  and  _621
REMARK  256  A    between atoms: _623  and  _625
REMARK  257  A    between atoms: _625  and  _626
REMARK                            x       y       z     vdW  Elec       q    Type
REMARK                         _______ _______ _______ _____ _____    ______ ____
ROOT
ATOM      1  NE  ARG A   1      36.538  41.387  -2.557  0.00  0.00    -0.265 N 
ATOM      2  HE  ARG A   1      36.328  40.444  -2.173  0.00  0.00    +0.259 HD
ATOM      3  CZ  ARG A   1      36.096  41.672  -3.779  0.00  0.00    +0.342 C 
ATOM      4  NH2 ARG A   1      36.368  42.851  -4.323  0.00  0.00    -0.292 N 
ATOM      5 HH21 ARG A   1      36.926  43.551  -3.794  0.00  0.00    +0.255 HD
ATOM      6 HH22 ARG A   1      36.023  43.075  -5.278  0.00  0.00    +0.255 HD
ATOM      7  NH1 ARG A   1      35.401  40.775  -4.471  0.00  0.00    -0.292 N 
ATOM      8 HH11 ARG A   1      35.199  39.842  -4.058  0.00  0.00    +0.255 HD
ATOM      9 HH12 ARG A   1      35.059  41.006  -5.426  0.00  0.00    +0.255 HD
ENDROOT
BRANCH   1  10
ATOM     10  CD  ARG A   1      37.299  42.311  -1.719  0.00  0.00    +0.174 C 
BRANCH  10  11
ATOM     11  CG  ARG A   1      36.387  43.261  -0.949  0.00  0.00    +0.045 C 
BRANCH  11  12
ATOM     12  CB  ARG A   1      35.526  42.494   0.066  0.00  0.00    +0.029 C 
BRANCH  12  13
ATOM     13  CA  ARG A   1      34.752  43.394   1.029  0.00  0.00    +0.133 C 
BRANCH  13  14
ATOM     14  N   ARG A   1      33.800  42.613   1.810  0.00  0.00    -0.239 NA
ATOM     15  H   ARG A   1      33.399  41.749   1.393  0.00  0.00    +0.142 HD
ENDBRANCH  13  14
BRANCH  13  16
ATOM     16  C   ARG A   1      33.914  44.385   0.236  0.00  0.00    +0.224 C 
ATOM     17  O   ARG A   1      33.089  43.978  -0.592  0.00  0.00    -0.287 OA
ENDBRANCH  13  16
ENDBRANCH  12  13
ENDBRANCH  11  12
ENDBRANCH  10  11
ENDBRANCH   1  10
TORSDOF 6
REMARK  Name = ../refined-set-2016/4omc/4omc_pocket.pdb
REMARK  257 active torsions:
REMARK  status: ('A' for Active; 'I' for Inactive)
REMARK    1  A    between atoms: _1  and  _3
REMARK    2  A    between atoms: _3  and  _4
REMARK    3  A    between atoms: _3  and  _6
REMARK    4  A    between atoms: _6  and  _7
REMARK    5  A    between atoms: _10  and  _12
REMARK    6  A    between atoms: _12  and  _13
REMARK    7  A    between atoms: _12  and  _15
REMARK    8  A    between atoms: _15  and  _16
REMARK    9  A    between atoms: _19  and  _21
REMARK   10  A    between atoms: _21  and  _22
REMARK   11  A    between atoms: _24  and  _26
REMARK   12  A    between atoms: _26  and  _27
REMARK   13  A    between atoms: _26  and  _29
REMARK   14  A    between atoms: _29  and  _30
REMARK   15  A    between atoms: _35  and  _37
REMARK   16  A    between atoms: _37  and  _38
REMARK   17  A    between atoms: _37  and  _40
REMARK   18  A    between atoms: _40  and  _41
REMARK   19  A    between atoms: _41  and  _42
REMARK   20  A    between atoms: _42  and  _43
REMARK   21  A    between atoms: _52  and  _54
REMARK   22  A    between atoms: _54  and  _55
REMARK   23  A    between atoms: _54  and  _57
REMARK   24  A    between atoms: _57  and  _58
REMARK   25  A    between atoms: _61  and  _63
REMARK   26  A    between atoms: _63  and  _64
REMARK   27  A    between atoms: _63  and  _66
REMARK   28  A    between atoms: _66  and  _67
REMARK   29  A    between atoms: _72  and  _74
REMARK   30  A    between atoms: _74  and  _75
REMARK   31  A    between atoms: _74  and  _77
REMARK   32  A    between atoms: _77  and  _78
REMARK   33  A    between atoms: _81  and  _83
REMARK   34  A    between atoms: _83  and  _84
REMARK   35  A    between atoms: _83  and  _86
REMARK   36  A    between atoms: _86  and  _87
REMARK   37  A    between atoms: _92  and  _94
REMARK   38  A    between atoms: _94  and  _95
REMARK   39  A    between atoms: _94  and  _97
REMARK   40  A    between atoms: _97  and  _98
REMARK   41  A    between atoms: _98  and  _99
REMARK   42  A    between atoms: _99  and  _100
REMARK   43  A    between atoms: _109  and  _111
REMARK   44  A    between atoms: _111  and  _112
REMARK   45  A    between atoms: _111  and  _114
REMARK   46  A    between atoms: _114  and  _115
REMARK   47  A    between atoms: _120  and  _122
REMARK   48  A    between atoms: _122  and  _123
REMARK   49  A    between atoms: _125  and  _127
REMARK   50  A    between atoms: _127  and  _128
REMARK   51  A    between atoms: _127  and  _130
REMARK   52  A    between atoms: _130  and  _131
REMARK   53  A    between atoms: _134  and  _136
REMARK   54  A    between atoms: _136  and  _137
REMARK   55  A    between atoms: _136  and  _139
REMARK   56  A    between atoms: _141  and  _143
REMARK   57  A    between atoms: _143  and  _144
REMARK   58  A    between atoms: _143  and  _146
REMARK   59  A    between atoms: _146  and  _147
REMARK   60  A    between atoms: _147  and  _148
REMARK   61  A    between atoms: _148  and  _149
REMARK   62  A    between atoms: _158  and  _160
REMARK   63  A    between atoms: _160  and  _161
REMARK   64  A    between atoms: _160  and  _163
REMARK   65  A    between atoms: _163  and  _164
REMARK   66  A    between atoms: _164  and  _165
REMARK   67  A    between atoms: _167  and  _169
REMARK   68  A    between atoms: _169  and  _170
REMARK   69  A    between atoms: _169  and  _172
REMARK   70  A    between atoms: _172  and  _173
REMARK   71  A    between atoms: _176  and  _178
REMARK   72  A    between atoms: _178  and  _179
REMARK   73  A    between atoms: _178  and  _181
REMARK   74  A    between atoms: _181  and  _182
REMARK   75  A    between atoms: _185  and  _187
REMARK   76  A    between atoms: _187  and  _188
REMARK   77  A    between atoms: _190  and  _192
REMARK   78  A    between atoms: _192  and  _193
REMARK   79  A    between atoms: _192  and  _195
REMARK   80  A    between atoms: _195  and  _196
REMARK   81  A    between atoms: _196  and  _197
REMARK   82  A    between atoms: _200  and  _202
REMARK   83  A    between atoms: _202  and  _203
REMARK   84  A    between atoms: _202  and  _205
REMARK   85  A    between atoms: _208  and  _210
REMARK   86  A    between atoms: _210  and  _211
REMARK   87  A    between atoms: _210  and  _213
REMARK   88  A    between atoms: _213  and  _214
REMARK   89  A    between atoms: _217  and  _219
REMARK   90  A    between atoms: _219  and  _220
REMARK   91  A    between atoms: _219  and  _222
REMARK   92  A    between atoms: _222  and  _223
REMARK   93  A    between atoms: _226  and  _228
REMARK   94  A    between atoms: _228  and  _229
REMARK   95  A    between atoms: _232  and  _234
REMARK   96  A    between atoms: _234  and  _235
REMARK   97  A    between atoms: _234  and  _237
REMARK   98  A    between atoms: _240  and  _242
REMARK   99  A    between atoms: _242  and  _243
REMARK  100  A    between atoms: _242  and  _245
REMARK  101  A    between atoms: _245  and  _246
REMARK  102  A    between atoms: _246  and  _247
REMARK  103  A    between atoms: _250  and  _252
REMARK  104  A    between atoms: _252  and  _253
REMARK  105  A    between atoms: _256  and  _258
REMARK  106  A    between atoms: _258  and  _259
REMARK  107  A    between atoms: _262  and  _264
REMARK  108  A    between atoms: _264  and  _265
REMARK  109  A    between atoms: _264  and  _267
REMARK  110  A    between atoms: _267  and  _268
REMARK  111  A    between atoms: _270  and  _272
REMARK  112  A    between atoms: _272  and  _273
REMARK  113  A    between atoms: _272  and  _275
REMARK  114  A    between atoms: _275  and  _276
REMARK  115  A    between atoms: _286  and  _288
REMARK  116  A    between atoms: _288  and  _289
REMARK  117  A    between atoms: _292  and  _293
REMARK  118  A    between atoms: _298  and  _300
REMARK  119  A    between atoms: _300  and  _301
REMARK  120  A    between atoms: _300  and  _303
REMARK  121  A    between atoms: _303  and  _304
REMARK  122  A    between atoms: _304  and  _305
REMARK  123  A    between atoms: _308  and  _310
REMARK  124  A    between atoms: _310  and  _311
REMARK  125  A    between atoms: _310  and  _313
REMARK  126  A    between atoms: _313  and  _314
REMARK  127  A    between atoms: _314  and  _315
REMARK  128  A    between atoms: _315  and  CA_629
REMARK  129  A    between atoms: _317  and  _319
REMARK  130  A    between atoms: _319  and  _320
REMARK  131  A    between atoms: _319  and  _322
REMARK  132  A    between atoms: _322  and  _323
REMARK  133  A    between atoms: _326  and  _328
REMARK  134  A    between atoms: _328  and  _329
REMARK  135  A    between atoms: _328  and  _331
REMARK  136  A    between atoms: _331  and  _332
REMARK  137  A    between atoms: _335  and  _337
REMARK  138  A    between atoms: _337  and  _338
REMARK  139  A    between atoms: _337  and  _340
REMARK  140  A    between atoms: _343  and  _345
REMARK  141  A    between atoms: _345  and  _346
REMARK  142  A    between atoms: _345  and  _348
REMARK  143  A    between atoms: _348  and  _349
REMARK  144  A    between atoms: _352  and  _354
REMARK  145  A    between atoms: _354  and  _355
REMARK  146  A    between atoms: _358  and  _359
REMARK  147  A    between atoms: _364  and  _366
REMARK  148  A    between atoms: _366  and  _367
REMARK  149  A    between atoms: _370  and  _372
REMARK  150  A    between atoms: _372  and  _373
REMARK  151  A    between atoms: _372  and  _375
REMARK  152  A    between atoms: _375  and  _376
REMARK  153  A    between atoms: _376  and  _377
REMARK  154  A    between atoms: _377  and  _378
REMARK  155  A    between atoms: _387  and  _389
REMARK  156  A    between atoms: _389  and  _390
REMARK  157  A    between atoms: _389  and  _392
REMARK  158  A    between atoms: _392  and  _393
REMARK  159  A    between atoms: _396  and  _398
REMARK  160  A    between atoms: _398  and  _399
REMARK  161  A    between atoms: _402  and  _404
REMARK  162  A    between atoms: _404  and  _405
REMARK  163  A    between atoms: _404  and  _407
REMARK  164  A    between atoms: _407  and  _408
REMARK  165  A    between atoms: _408  and  _409
REMARK  166  A    between atoms: _412  and  _414
REMARK  167  A    between atoms: _414  and  _415
REMARK  168  A    between atoms: _414  and  _417
REMARK  169  A    between atoms: _417  and  _418
REMARK  170  A    between atoms: _428  and  _430
REMARK  171  A    between atoms: _430  and  _431
REMARK  172  A    between atoms: _434  and  _436
REMARK  173  A    between atoms: _436  and  _437
REMARK  174  A    between atoms: _436  and  _439
REMARK  175  A    between atoms: _439  and  _440
REMARK  176  A    between atoms: _442  and  _444
REMARK  177  A    between atoms: _444  and  _445
REMARK  178  A    between atoms: _447  and  _449
REMARK  179  A    between atoms: _449  and  _450
REMARK  180  A    between atoms: _449  and  _452
REMARK  181  A    between atoms: _452  and  _453
REMARK  182  A    between atoms: _458  and  _460
REMARK  183  A    between atoms: _460  and  _461
REMARK  184  A    between atoms: _463  and  _465
REMARK  185  A    between atoms: _465  and  _466
REMARK  186  A    between atoms: _465  and  _468
REMARK  187  A    between atoms: _468  and  _469
REMARK  188  A    between atoms: _469  and  _471
REMARK  189  A    between atoms: _471  and  CA_629
REMARK  190  A    between atoms: _472  and  _474
REMARK  191  A    between atoms: _474  and  _475
REMARK  192  A    between atoms: _474  and  _477
REMARK  193  A    between atoms: _477  and  _478
REMARK  194  A    between atoms: _480  and  _482
REMARK  195  A    between atoms: _482  and  _483
REMARK  196  A    between atoms: _482  and  _485
REMARK  197  A    between atoms: _487  and  _489
REMARK  198  A    between atoms: _489  and  _490
REMARK  199  A    between atoms: _489  and  _492
REMARK  200  A    between atoms: _494  and  _496
REMARK  201  A    between atoms: _496  and  _497
REMARK  202  A    between atoms: _496  and  _499
REMARK  203  A    between atoms: _499  and  _500
REMARK  204  A    between atoms: _503  and  _505
REMARK  205  A    between atoms: _505  and  _506
REMARK  206  A    between atoms: _508  and  _510
REMARK  207  A    between atoms: _510  and  _511
REMARK  208  A    between atoms: _510  and  _513
REMARK  209  A    between atoms: _513  and  _514
REMARK  210  A    between atoms: _519  and  _520
REMARK  211  A    between atoms: _522  and  _524
REMARK  212  A    between atoms: _524  and  _525
REMARK  213  A    between atoms: _524  and  _527
REMARK  214  A    between atoms: _527  and  _528
REMARK  215  A    between atoms: _531  and  _533
REMARK  216  A    between atoms: _533  and  _534
REMARK  217  A    between atoms: _533  and  _536
REMARK  218  A    between atoms: _536  and  _537
REMARK  219  A    between atoms: _542  and  _544
REMARK  220  A    between atoms: _544  and  _545
REMARK  221  A    between atoms: _544  and  _547
REMARK  222  A    between atoms: _547  and  _548
REMARK  223  A    between atoms: _551  and  _553
REMARK  224  A    between atoms: _553  and  _554
REMARK  225  A    between atoms: _553  and  _556
REMARK  226  A    between atoms: _556  and  _557
REMARK  227  A    between atoms: _559  and  _561
REMARK  228  A    between atoms: _561  and  _562
REMARK  229  A    between atoms: _561  and  _564
REMARK  230  A    between atoms: _564  and  _565
REMARK  231  A    between atoms: _568  and  _570
REMARK  232  A    between atoms: _570  and  _571
REMARK  233  A    between atoms: _570  and  _573
REMARK  234  A    between atoms: _573  and  _574
REMARK  235  A    between atoms: _574  and  _575
REMARK  236  A    between atoms: _578  and  _580
REMARK  237  A    between atoms: _580  and  _581
REMARK  238  A    between atoms: _580  and  _583
REMARK  239  A    between atoms: _583  and  _584
REMARK  240  A    between atoms: _587  and  _589
REMARK  241  A    between atoms: _589  and  _590
REMARK  242  A    between atoms: _592  and  _594
REMARK  243  A    between atoms: _594  and  _595
REMARK  244  A    between atoms: _594  and  _597
REMARK  245  A    between atoms: _597  and  _598
REMARK  246  A    between atoms: _601  and  _603
REMARK  247  A    between atoms: _603  and  _604
REMARK  248  A    between atoms: _603  and  _606
REMARK  249  A    between atoms: _606  and  _607
REMARK  250  A    between atoms: _609  and  _611
REMARK  251  A    between atoms: _611  and  _612
REMARK  252  A    between atoms: _615  and  _617
REMARK  253  A    between atoms: _617  and  _618
REMARK  254  A    between atoms: _617  and  _620
REMARK  255  A    between atoms: _620  and  _621
REMARK  256  A    between atoms: _623  and  _625
REMARK  257  A    between atoms: _625  and  _626
REMARK                            x       y       z     vdW  Elec       q    Type
REMARK                         _______ _______ _______ _____ _____    ______ ____
ROOT
ATOM      1  CA  THR A   1      33.074  47.347  -3.948  0.00  0.00    +0.160 C 
ENDROOT
BRANCH   1   2
ATOM      2  N   THR A   1      32.797  47.040  -2.551  0.00  0.00    -0.237 NA
ATOM      3  H   THR A   1      31.817  46.848  -2.261  0.00  0.00    +0.142 HD
ENDBRANCH   1   2
BRANCH   1   4
ATOM      4  C   THR A   1      31.948  48.249  -4.457  0.00  0.00    +0.227 C 
ATOM      5  O   THR A   1      30.850  48.266  -3.886  0.00  0.00    -0.287 OA
ENDBRANCH   1   4
BRANCH   1   6
ATOM      6  CB  THR A   1      33.133  46.079  -4.817  0.00  0.00    +0.134 C 
ATOM      7  CG2 THR A   1      34.028  45.040  -4.164  0.00  0.00    +0.034 C 
BRANCH   6   8
ATOM      8  OG1 THR A   1      31.817  45.537  -4.978  0.00  0.00    -0.383 OA
ATOM      9  HG1 THR A   1      31.863  44.722  -5.538  0.00  0.00    +0.210 HD
ENDBRANCH   6   8
ENDBRANCH   1   6
TORSDOF 4
REMARK  Name = ../refined-set-2016/4omc/4omc_pocket.pdb
REMARK  257 active torsions:
REMARK  status: ('A' for Active; 'I' for Inactive)
REMARK    1  A    between atoms: _1  and  _3
REMARK    2  A    between atoms: _3  and  _4
REMARK    3  A    between atoms: _3  and  _6
REMARK    4  A    between atoms: _6  and  _7
REMARK    5  A    between atoms: _10  and  _12
REMARK    6  A    between atoms: _12  and  _13
REMARK    7  A    between atoms: _12  and  _15
REMARK    8  A    between atoms: _15  and  _16
REMARK    9  A    between atoms: _19  and  _21
REMARK   10  A    between atoms: _21  and  _22
REMARK   11  A    between atoms: _24  and  _26
REMARK   12  A    between atoms: _26  and  _27
REMARK   13  A    between atoms: _26  and  _29
REMARK   14  A    between atoms: _29  and  _30
REMARK   15  A    between atoms: _35  and  _37
REMARK   16  A    between atoms: _37  and  _38
REMARK   17  A    between atoms: _37  and  _40
REMARK   18  A    between atoms: _40  and  _41
REMARK   19  A    between atoms: _41  and  _42
REMARK   20  A    between atoms: _42  and  _43
REMARK   21  A    between atoms: _52  and  _54
REMARK   22  A    between atoms: _54  and  _55
REMARK   23  A    between atoms: _54  and  _57
REMARK   24  A    between atoms: _57  and  _58
REMARK   25  A    between atoms: _61  and  _63
REMARK   26  A    between atoms: _63  and  _64
REMARK   27  A    between atoms: _63  and  _66
REMARK   28  A    between atoms: _66  and  _67
REMARK   29  A    between atoms: _72  and  _74
REMARK   30  A    between atoms: _74  and  _75
REMARK   31  A    between atoms: _74  and  _77
REMARK   32  A    between atoms: _77  and  _78
REMARK   33  A    between atoms: _81  and  _83
REMARK   34  A    between atoms: _83  and  _84
REMARK   35  A    between atoms: _83  and  _86
REMARK   36  A    between atoms: _86  and  _87
REMARK   37  A    between atoms: _92  and  _94
REMARK   38  A    between atoms: _94  and  _95
REMARK   39  A    between atoms: _94  and  _97
REMARK   40  A    between atoms: _97  and  _98
REMARK   41  A    between atoms: _98  and  _99
REMARK   42  A    between atoms: _99  and  _100
REMARK   43  A    between atoms: _109  and  _111
REMARK   44  A    between atoms: _111  and  _112
REMARK   45  A    between atoms: _111  and  _114
REMARK   46  A    between atoms: _114  and  _115
REMARK   47  A    between atoms: _120  and  _122
REMARK   48  A    between atoms: _122  and  _123
REMARK   49  A    between atoms: _125  and  _127
REMARK   50  A    between atoms: _127  and  _128
REMARK   51  A    between atoms: _127  and  _130
REMARK   52  A    between atoms: _130  and  _131
REMARK   53  A    between atoms: _134  and  _136
REMARK   54  A    between atoms: _136  and  _137
REMARK   55  A    between atoms: _136  and  _139
REMARK   56  A    between atoms: _141  and  _143
REMARK   57  A    between atoms: _143  and  _144
REMARK   58  A    between atoms: _143  and  _146
REMARK   59  A    between atoms: _146  and  _147
REMARK   60  A    between atoms: _147  and  _148
REMARK   61  A    between atoms: _148  and  _149
REMARK   62  A    between atoms: _158  and  _160
REMARK   63  A    between atoms: _160  and  _161
REMARK   64  A    between atoms: _160  and  _163
REMARK   65  A    between atoms: _163  and  _164
REMARK   66  A    between atoms: _164  and  _165
REMARK   67  A    between atoms: _167  and  _169
REMARK   68  A    between atoms: _169  and  _170
REMARK   69  A    between atoms: _169  and  _172
REMARK   70  A    between atoms: _172  and  _173
REMARK   71  A    between atoms: _176  and  _178
REMARK   72  A    between atoms: _178  and  _179
REMARK   73  A    between atoms: _178  and  _181
REMARK   74  A    between atoms: _181  and  _182
REMARK   75  A    between atoms: _185  and  _187
REMARK   76  A    between atoms: _187  and  _188
REMARK   77  A    between atoms: _190  and  _192
REMARK   78  A    between atoms: _192  and  _193
REMARK   79  A    between atoms: _192  and  _195
REMARK   80  A    between atoms: _195  and  _196
REMARK   81  A    between atoms: _196  and  _197
REMARK   82  A    between atoms: _200  and  _202
REMARK   83  A    between atoms: _202  and  _203
REMARK   84  A    between atoms: _202  and  _205
REMARK   85  A    between atoms: _208  and  _210
REMARK   86  A    between atoms: _210  and  _211
REMARK   87  A    between atoms: _210  and  _213
REMARK   88  A    between atoms: _213  and  _214
REMARK   89  A    between atoms: _217  and  _219
REMARK   90  A    between atoms: _219  and  _220
REMARK   91  A    between atoms: _219  and  _222
REMARK   92  A    between atoms: _222  and  _223
REMARK   93  A    between atoms: _226  and  _228
REMARK   94  A    between atoms: _228  and  _229
REMARK   95  A    between atoms: _232  and  _234
REMARK   96  A    between atoms: _234  and  _235
REMARK   97  A    between atoms: _234  and  _237
REMARK   98  A    between atoms: _240  and  _242
REMARK   99  A    between atoms: _242  and  _243
REMARK  100  A    between atoms: _242  and  _245
REMARK  101  A    between atoms: _245  and  _246
REMARK  102  A    between atoms: _246  and  _247
REMARK  103  A    between atoms: _250  and  _252
REMARK  104  A    between atoms: _252  and  _253
REMARK  105  A    between atoms: _256  and  _258
REMARK  106  A    between atoms: _258  and  _259
REMARK  107  A    between atoms: _262  and  _264
REMARK  108  A    between atoms: _264  and  _265
REMARK  109  A    between atoms: _264  and  _267
REMARK  110  A    between atoms: _267  and  _268
REMARK  111  A    between atoms: _270  and  _272
REMARK  112  A    between atoms: _272  and  _273
REMARK  113  A    between atoms: _272  and  _275
REMARK  114  A    between atoms: _275  and  _276
REMARK  115  A    between atoms: _286  and  _288
REMARK  116  A    between atoms: _288  and  _289
REMARK  117  A    between atoms: _292  and  _293
REMARK  118  A    between atoms: _298  and  _300
REMARK  119  A    between atoms: _300  and  _301
REMARK  120  A    between atoms: _300  and  _303
REMARK  121  A    between atoms: _303  and  _304
REMARK  122  A    between atoms: _304  and  _305
REMARK  123  A    between atoms: _308  and  _310
REMARK  124  A    between atoms: _310  and  _311
REMARK  125  A    between atoms: _310  and  _313
REMARK  126  A    between atoms: _313  and  _314
REMARK  127  A    between atoms: _314  and  _315
REMARK  128  A    between atoms: _315  and  CA_629
REMARK  129  A    between atoms: _317  and  _319
REMARK  130  A    between atoms: _319  and  _320
REMARK  131  A    between atoms: _319  and  _322
REMARK  132  A    between atoms: _322  and  _323
REMARK  133  A    between atoms: _326  and  _328
REMARK  134  A    between atoms: _328  and  _329
REMARK  135  A    between atoms: _328  and  _331
REMARK  136  A    between atoms: _331  and  _332
REMARK  137  A    between atoms: _335  and  _337
REMARK  138  A    between atoms: _337  and  _338
REMARK  139  A    between atoms: _337  and  _340
REMARK  140  A    between atoms: _343  and  _345
REMARK  141  A    between atoms: _345  and  _346
REMARK  142  A    between atoms: _345  and  _348
REMARK  143  A    between atoms: _348  and  _349
REMARK  144  A    between atoms: _352  and  _354
REMARK  145  A    between atoms: _354  and  _355
REMARK  146  A    between atoms: _358  and  _359
REMARK  147  A    between atoms: _364  and  _366
REMARK  148  A    between atoms: _366  and  _367
REMARK  149  A    between atoms: _370  and  _372
REMARK  150  A    between atoms: _372  and  _373
REMARK  151  A    between atoms: _372  and  _375
REMARK  152  A    between atoms: _375  and  _376
REMARK  153  A    between atoms: _376  and  _377
REMARK  154  A    between atoms: _377  and  _378
REMARK  155  A    between atoms: _387  and  _389
REMARK  156  A    between atoms: _389  and  _390
REMARK  157  A    between atoms: _389  and  _392
REMARK  158  A    between atoms: _392  and  _393
REMARK  159  A    between atoms: _396  and  _398
REMARK  160  A    between atoms: _398  and  _399
REMARK  161  A    between atoms: _402  and  _404
REMARK  162  A    between atoms: _404  and  _405
REMARK  163  A    between atoms: _404  and  _407
REMARK  164  A    between atoms: _407  and  _408
REMARK  165  A    between atoms: _408  and  _409
REMARK  166  A    between atoms: _412  and  _414
REMARK  167  A    between atoms: _414  and  _415
REMARK  168  A    between atoms: _414  and  _417
REMARK  169  A    between atoms: _417  and  _418
REMARK  170  A    between atoms: _428  and  _430
REMARK  171  A    between atoms: _430  and  _431
REMARK  172  A    between atoms: _434  and  _436
REMARK  173  A    between atoms: _436  and  _437
REMARK  174  A    between atoms: _436  and  _439
REMARK  175  A    between atoms: _439  and  _440
REMARK  176  A    between atoms: _442  and  _444
REMARK  177  A    between atoms: _444  and  _445
REMARK  178  A    between atoms: _447  and  _449
REMARK  179  A    between atoms: _449  and  _450
REMARK  180  A    between atoms: _449  and  _452
REMARK  181  A    between atoms: _452  and  _453
REMARK  182  A    between atoms: _458  and  _460
REMARK  183  A    between atoms: _460  and  _461
REMARK  184  A    between atoms: _463  and  _465
REMARK  185  A    between atoms: _465  and  _466
REMARK  186  A    between atoms: _465  and  _468
REMARK  187  A    between atoms: _468  and  _469
REMARK  188  A    between atoms: _469  and  _471
REMARK  189  A    between atoms: _471  and  CA_629
REMARK  190  A    between atoms: _472  and  _474
REMARK  191  A    between atoms: _474  and  _475
REMARK  192  A    between atoms: _474  and  _477
REMARK  193  A    between atoms: _477  and  _478
REMARK  194  A    between atoms: _480  and  _482
REMARK  195  A    between atoms: _482  and  _483
REMARK  196  A    between atoms: _482  and  _485
REMARK  197  A    between atoms: _487  and  _489
REMARK  198  A    between atoms: _489  and  _490
REMARK  199  A    between atoms: _489  and  _492
REMARK  200  A    between atoms: _494  and  _496
REMARK  201  A    between atoms: _496  and  _497
REMARK  202  A    between atoms: _496  and  _499
REMARK  203  A    between atoms: _499  and  _500
REMARK  204  A    between atoms: _503  and  _505
REMARK  205  A    between atoms: _505  and  _506
REMARK  206  A    between atoms: _508  and  _510
REMARK  207  A    between atoms: _510  and  _511
REMARK  208  A    between atoms: _510  and  _513
REMARK  209  A    between atoms: _513  and  _514
REMARK  210  A    between atoms: _519  and  _520
REMARK  211  A    between atoms: _522  and  _524
REMARK  212  A    between atoms: _524  and  _525
REMARK  213  A    between atoms: _524  and  _527
REMARK  214  A    between atoms: _527  and  _528
REMARK  215  A    between atoms: _531  and  _533
REMARK  216  A    between atoms: _533  and  _534
REMARK  217  A    between atoms: _533  and  _536
REMARK  218  A    between atoms: _536  and  _537
REMARK  219  A    between atoms: _542  and  _544
REMARK  220  A    between atoms: _544  and  _545
REMARK  221  A    between atoms: _544  and  _547
REMARK  222  A    between atoms: _547  and  _548
REMARK  223  A    between atoms: _551  and  _553
REMARK  224  A    between atoms: _553  and  _554
REMARK  225  A    between atoms: _553  and  _556
REMARK  226  A    between atoms: _556  and  _557
REMARK  227  A    between atoms: _559  and  _561
REMARK  228  A    between atoms: _561  and  _562
REMARK  229  A    between atoms: _561  and  _564
REMARK  230  A    between atoms: _564  and  _565
REMARK  231  A    between atoms: _568  and  _570
REMARK  232  A    between atoms: _570  and  _571
REMARK  233  A    between atoms: _570  and  _573
REMARK  234  A    between atoms: _573  and  _574
REMARK  235  A    between atoms: _574  and  _575
REMARK  236  A    between atoms: _578  and  _580
REMARK  237  A    between atoms: _580  and  _581
REMARK  238  A    between atoms: _580  and  _583
REMARK  239  A    between atoms: _583  and  _584
REMARK  240  A    between atoms: _587  and  _589
REMARK  241  A    between atoms: _589  and  _590
REMARK  242  A    between atoms: _592  and  _594
REMARK  243  A    between atoms: _594  and  _595
REMARK  244  A    between atoms: _594  and  _597
REMARK  245  A    between atoms: _597  and  _598
REMARK  246  A    between atoms: _601  and  _603
REMARK  247  A    between atoms: _603  and  _604
REMARK  248  A    between atoms: _603  and  _606
REMARK  249  A    between atoms: _606  and  _607
REMARK  250  A    between atoms: _609  and  _611
REMARK  251  A    between atoms: _611  and  _612
REMARK  252  A    between atoms: _615  and  _617
REMARK  253  A    between atoms: _617  and  _618
REMARK  254  A    between atoms: _617  and  _620
REMARK  255  A    between atoms: _620  and  _621
REMARK  256  A    between atoms: _623  and  _625
REMARK  257  A    between atoms: _625  and  _626
REMARK                            x       y       z     vdW  Elec       q    Type
REMARK                         _______ _______ _______ _____ _____    ______ ____
ROOT
ATOM      1  CA  ARG A   4      25.908  42.406   0.269  0.00  0.00    +0.149 C 
ENDROOT
BRANCH   1   4
ATOM      2  C   ASN A   3      28.214  41.695  -0.127  0.00  0.00    +0.241 C 
ATOM      3  O   ASN A   3      28.491  41.725   1.069  0.00  0.00    -0.273 OA
ATOM      4  N   ARG A   4      27.007  41.988  -0.599  0.00  0.00    -0.297 N 
ATOM      5  H   ARG A   4      26.838  41.917  -1.623  0.00  0.00    +0.150 HD
BRANCH   2   6
ATOM      6  CA  ASN A   3      29.250  41.264  -1.156  0.00  0.00    +0.158 C 
BRANCH   6   8
ATOM      7  C   ASP A   2      28.710  41.599  -3.488  0.00  0.00    +0.241 C 
ATOM      8  N   ASN A   3      29.313  42.035  -2.389  0.00  0.00    -0.297 N 
ATOM      9  H   ASN A   3      29.835  42.935  -2.409  0.00  0.00    +0.150 HD
ATOM     10  O   ASP A   2      28.023  40.578  -3.509  0.00  0.00    -0.273 OA
BRANCH   7  11
ATOM     11  CA  ASP A   2      28.888  42.433  -4.744  0.00  0.00    +0.160 C 
BRANCH  11  14
ATOM     12  C   ASN A   1      27.967  44.526  -3.910  0.00  0.00    +0.239 C 
ATOM     13  O   ASN A   1      26.939  43.974  -3.505  0.00  0.00    -0.274 OA
ATOM     14  N   ASP A   2      28.950  43.866  -4.501  0.00  0.00    -0.297 N 
ATOM     15  H   ASP A   2      29.796  44.390  -4.802  0.00  0.00    +0.150 HD
BRANCH  12  16
ATOM     16  CA  ASN A   1      28.188  46.034  -3.741  0.00  0.00    +0.154 C 
BRANCH  16  17
ATOM     17  N   ASN A   1      28.751  46.649  -4.940  0.00  0.00    -0.238 NA
ATOM     18  H   ASN A   1      29.647  47.173  -4.867  0.00  0.00    +0.142 HD
ENDBRANCH  16  17
BRANCH  16  19
ATOM     19  CB  ASN A   1      26.872  46.704  -3.381  0.00  0.00    +0.111 C 
BRANCH  19  20
ATOM     20  CG  ASN A   1      27.065  48.097  -2.844  0.00  0.00    +0.221 C 
ATOM     21  OD1 ASN A   1      27.837  48.310  -1.911  0.00  0.00    -0.275 OA
ATOM     22  ND2 ASN A   1      26.358  49.054  -3.419  0.00  0.00    -0.329 N 
ATOM     23 HD21 ASN A   1      26.442  50.035  -3.085  0.00  0.00    +0.145 HD
ATOM     24 HD22 ASN A   1      25.717  48.826  -4.206  0.00  0.00    +0.145 HD
ENDBRANCH  19  20
ENDBRANCH  16  19
ENDBRANCH  12  16
ENDBRANCH  11  14
BRANCH  11  25
ATOM     25  CB  ASP A   2      30.166  41.972  -5.459  0.00  0.00    +0.143 C 
BRANCH  25  26
ATOM     26  CG  ASP A   2      30.457  42.779  -6.710  0.00  0.00    +0.367 C 
ATOM     27  OD2 ASP A   2      30.855  43.959  -6.578  0.00  0.00    -0.246 OA
ATOM     28  OD1 ASP A   2      30.274  42.237  -7.825  0.00  0.00    -0.246 OA
ENDBRANCH  25  26
ENDBRANCH  11  25
ENDBRANCH   7  11
ENDBRANCH   6   8
BRANCH   6  29
ATOM     29  CB  ASN A   3      30.643  41.227  -0.537  0.00  0.00    +0.114 C 
BRANCH  29  30
ATOM     30  CG  ASN A   3      31.689  40.725  -1.519  0.00  0.00    +0.222 C 
ATOM     31  ND2 ASN A   3      32.679  41.564  -1.827  0.00  0.00    -0.329 N 
ATOM     32 HD21 ASN A   3      32.717  42.507  -1.389  0.00  0.00    +0.145 HD
ATOM     33 HD22 ASN A   3      33.413  41.276  -2.505  0.00  0.00    +0.145 HD
ATOM     34  OD1 ASN A   3      31.597  39.598  -2.008  0.00  0.00    -0.275 OA
ENDBRANCH  29  30
ENDBRANCH   6  29
ENDBRANCH   2   6
ENDBRANCH   1   4
BRANCH   1  35
ATOM     35  C   ARG A   4      25.007  41.221   0.612  0.00  0.00    +0.241 C 
ATOM     36  O   ARG A   4      24.200  41.293   1.542  0.00  0.00    -0.273 OA
ATOM     37  N   HIS A   5      25.153  40.140  -0.154  0.00  0.00    -0.297 N 
ATOM     38  H   HIS A   5      25.888  40.150  -0.890  0.00  0.00    +0.150 HD
BRANCH  37  39
ATOM     39  CA  HIS A   5      24.333  38.945  -0.010  0.00  0.00    +0.155 C 
BRANCH  39  40
ATOM     40  C   HIS A   5      24.263  38.351   1.393  0.00  0.00    +0.241 C 
ATOM     41  N   GLY A   6      25.411  38.091   2.011  0.00  0.00    -0.295 N 
ATOM     42  H   GLY A   6      26.315  38.309   1.546  0.00  0.00    +0.150 HD
ATOM     43  O   HIS A   5      23.178  38.147   1.917  0.00  0.00    -0.273 OA
BRANCH  41  44
ATOM     44  CA  GLY A   6      25.398  37.501   3.339  0.00  0.00    +0.176 C 
BRANCH  44  45
ATOM     45  C   GLY A   6      24.708  38.374   4.365  0.00  0.00    +0.243 C 
ATOM     46  O   GLY A   6      23.969  37.897   5.228  0.00  0.00    -0.273 OA
ATOM     47  N   THR A   7      24.950  39.673   4.273  0.00  0.00    -0.296 N 
ATOM     48  H   THR A   7      25.572  40.026   3.518  0.00  0.00    +0.150 HD
BRANCH  47  49
ATOM     49  CA  THR A   7      24.358  40.614   5.213  0.00  0.00    +0.164 C 
BRANCH  49  50
ATOM     50  C   THR A   7      22.840  40.609   5.080  0.00  0.00    +0.229 C 
ATOM     51  O   THR A   7      22.116  40.716   6.074  0.00  0.00    -0.286 OA
ENDBRANCH  49  50
BRANCH  49  52
ATOM     52  CB  THR A   7      24.937  42.037   4.994  0.00  0.00    +0.136 C 
ATOM     53  CG2 THR A   7      24.226  43.062   5.885  0.00  0.00    +0.034 C 
BRANCH  52  54
ATOM     54  OG1 THR A   7      26.342  42.029   5.315  0.00  0.00    -0.382 OA
ATOM     55  HG1 THR A   7      26.810  41.384   4.727  0.00  0.00    +0.210 HD
ENDBRANCH  52  54
ENDBRANCH  49  52
ENDBRANCH  47  49
ENDBRANCH  44  45
ENDBRANCH  41  44
ENDBRANCH  39  40
BRANCH  39  56
ATOM     56  CB  HIS A   5      24.822  37.907  -1.011  0.00  0.00    +0.076 C 
BRANCH  56  57
ATOM     57  CG  HIS A   5      23.897  36.753  -1.208  0.00  0.00    +0.082 A 
ATOM     58  ND1 HIS A   5      24.129  35.516  -0.652  0.00  0.00    -0.227 NA
ATOM     59  CE1 HIS A   5      23.222  34.660  -1.087  0.00  0.00    +0.199 A 
ATOM     60  NE2 HIS A   5      22.402  35.300  -1.899  0.00  0.00    -0.221 NA
ATOM     61  CD2 HIS A   5      22.797  36.615  -1.986  0.00  0.00    +0.115 A 
ENDBRANCH  56  57
ENDBRANCH  39  56
ENDBRANCH  37  39
ENDBRANCH   1  35
BRANCH   1  62
ATOM     62  CB  ARG A   4      25.057  43.445  -0.453  0.00  0.00    +0.033 C 
BRANCH  62  63
ATOM     63  CG  ARG A   4      24.302  42.831  -1.609  0.00  0.00    +0.045 C 
BRANCH  63  64
ATOM     64  CD  ARG A   4      23.627  43.859  -2.484  0.00  0.00    +0.174 C 
BRANCH  64  65
ATOM     65  NE  ARG A   4      22.822  43.205  -3.518  0.00  0.00    -0.265 N 
ATOM     66  HE  ARG A   4      22.874  42.169  -3.590  0.00  0.00    +0.259 HD
ATOM     67  CZ  ARG A   4      22.028  43.848  -4.372  0.00  0.00    +0.342 C 
ATOM     68  NH2 ARG A   4      21.939  45.177  -4.321  0.00  0.00    -0.292 N 
ATOM     69 HH21 ARG A   4      22.489  45.708  -3.616  0.00  0.00    +0.255 HD
ATOM     70 HH22 ARG A   4      21.320  45.683  -4.986  0.00  0.00    +0.255 HD
ATOM     71  NH1 ARG A   4      21.300  43.168  -5.258  0.00  0.00    -0.292 N 
ATOM     72 HH11 ARG A   4      21.350  42.130  -5.285  0.00  0.00    +0.255 HD
ATOM     73 HH12 ARG A   4      20.682  43.676  -5.922  0.00  0.00    +0.255 HD
ENDBRANCH  64  65
ENDBRANCH  63  64
ENDBRANCH  62  63
ENDBRANCH   1  62
TORSDOF 28
REMARK  Name = ../refined-set-2016/4omc/4omc_pocket.pdb
REMARK  257 active torsions:
REMARK  status: ('A' for Active; 'I' for Inactive)
REMARK    1  A    between atoms: _1  and  _3
REMARK    2  A    between atoms: _3  and  _4
REMARK    3  A    between atoms: _3  and  _6
REMARK    4  A    between atoms: _6  and  _7
REMARK    5  A    between atoms: _10  and  _12
REMARK    6  A    between atoms: _12  and  _13
REMARK    7  A    between atoms: _12  and  _15
REMARK    8  A    between atoms: _15  and  _16
REMARK    9  A    between atoms: _19  and  _21
REMARK   10  A    between atoms: _21  and  _22
REMARK   11  A    between atoms: _24  and  _26
REMARK   12  A    between atoms: _26  and  _27
REMARK   13  A    between atoms: _26  and  _29
REMARK   14  A    between atoms: _29  and  _30
REMARK   15  A    between atoms: _35  and  _37
REMARK   16  A    between atoms: _37  and  _38
REMARK   17  A    between atoms: _37  and  _40
REMARK   18  A    between atoms: _40  and  _41
REMARK   19  A    between atoms: _41  and  _42
REMARK   20  A    between atoms: _42  and  _43
REMARK   21  A    between atoms: _52  and  _54
REMARK   22  A    between atoms: _54  and  _55
REMARK   23  A    between atoms: _54  and  _57
REMARK   24  A    between atoms: _57  and  _58
REMARK   25  A    between atoms: _61  and  _63
REMARK   26  A    between atoms: _63  and  _64
REMARK   27  A    between atoms: _63  and  _66
REMARK   28  A    between atoms: _66  and  _67
REMARK   29  A    between atoms: _72  and  _74
REMARK   30  A    between atoms: _74  and  _75
REMARK   31  A    between atoms: _74  and  _77
REMARK   32  A    between atoms: _77  and  _78
REMARK   33  A    between atoms: _81  and  _83
REMARK   34  A    between atoms: _83  and  _84
REMARK   35  A    between atoms: _83  and  _86
REMARK   36  A    between atoms: _86  and  _87
REMARK   37  A    between atoms: _92  and  _94
REMARK   38  A    between atoms: _94  and  _95
REMARK   39  A    between atoms: _94  and  _97
REMARK   40  A    between atoms: _97  and  _98
REMARK   41  A    between atoms: _98  and  _99
REMARK   42  A    between atoms: _99  and  _100
REMARK   43  A    between atoms: _109  and  _111
REMARK   44  A    between atoms: _111  and  _112
REMARK   45  A    between atoms: _111  and  _114
REMARK   46  A    between atoms: _114  and  _115
REMARK   47  A    between atoms: _120  and  _122
REMARK   48  A    between atoms: _122  and  _123
REMARK   49  A    between atoms: _125  and  _127
REMARK   50  A    between atoms: _127  and  _128
REMARK   51  A    between atoms: _127  and  _130
REMARK   52  A    between atoms: _130  and  _131
REMARK   53  A    between atoms: _134  and  _136
REMARK   54  A    between atoms: _136  and  _137
REMARK   55  A    between atoms: _136  and  _139
REMARK   56  A    between atoms: _141  and  _143
REMARK   57  A    between atoms: _143  and  _144
REMARK   58  A    between atoms: _143  and  _146
REMARK   59  A    between atoms: _146  and  _147
REMARK   60  A    between atoms: _147  and  _148
REMARK   61  A    between atoms: _148  and  _149
REMARK   62  A    between atoms: _158  and  _160
REMARK   63  A    between atoms: _160  and  _161
REMARK   64  A    between atoms: _160  and  _163
REMARK   65  A    between atoms: _163  and  _164
REMARK   66  A    between atoms: _164  and  _165
REMARK   67  A    between atoms: _167  and  _169
REMARK   68  A    between atoms: _169  and  _170
REMARK   69  A    between atoms: _169  and  _172
REMARK   70  A    between atoms: _172  and  _173
REMARK   71  A    between atoms: _176  and  _178
REMARK   72  A    between atoms: _178  and  _179
REMARK   73  A    between atoms: _178  and  _181
REMARK   74  A    between atoms: _181  and  _182
REMARK   75  A    between atoms: _185  and  _187
REMARK   76  A    between atoms: _187  and  _188
REMARK   77  A    between atoms: _190  and  _192
REMARK   78  A    between atoms: _192  and  _193
REMARK   79  A    between atoms: _192  and  _195
REMARK   80  A    between atoms: _195  and  _196
REMARK   81  A    between atoms: _196  and  _197
REMARK   82  A    between atoms: _200  and  _202
REMARK   83  A    between atoms: _202  and  _203
REMARK   84  A    between atoms: _202  and  _205
REMARK   85  A    between atoms: _208  and  _210
REMARK   86  A    between atoms: _210  and  _211
REMARK   87  A    between atoms: _210  and  _213
REMARK   88  A    between atoms: _213  and  _214
REMARK   89  A    between atoms: _217  and  _219
REMARK   90  A    between atoms: _219  and  _220
REMARK   91  A    between atoms: _219  and  _222
REMARK   92  A    between atoms: _222  and  _223
REMARK   93  A    between atoms: _226  and  _228
REMARK   94  A    between atoms: _228  and  _229
REMARK   95  A    between atoms: _232  and  _234
REMARK   96  A    between atoms: _234  and  _235
REMARK   97  A    between atoms: _234  and  _237
REMARK   98  A    between atoms: _240  and  _242
REMARK   99  A    between atoms: _242  and  _243
REMARK  100  A    between atoms: _242  and  _245
REMARK  101  A    between atoms: _245  and  _246
REMARK  102  A    between atoms: _246  and  _247
REMARK  103  A    between atoms: _250  and  _252
REMARK  104  A    between atoms: _252  and  _253
REMARK  105  A    between atoms: _256  and  _258
REMARK  106  A    between atoms: _258  and  _259
REMARK  107  A    between atoms: _262  and  _264
REMARK  108  A    between atoms: _264  and  _265
REMARK  109  A    between atoms: _264  and  _267
REMARK  110  A    between atoms: _267  and  _268
REMARK  111  A    between atoms: _270  and  _272
REMARK  112  A    between atoms: _272  and  _273
REMARK  113  A    between atoms: _272  and  _275
REMARK  114  A    between atoms: _275  and  _276
REMARK  115  A    between atoms: _286  and  _288
REMARK  116  A    between atoms: _288  and  _289
REMARK  117  A    between atoms: _292  and  _293
REMARK  118  A    between atoms: _298  and  _300
REMARK  119  A    between atoms: _300  and  _301
REMARK  120  A    between atoms: _300  and  _303
REMARK  121  A    between atoms: _303  and  _304
REMARK  122  A    between atoms: _304  and  _305
REMARK  123  A    between atoms: _308  and  _310
REMARK  124  A    between atoms: _310  and  _311
REMARK  125  A    between atoms: _310  and  _313
REMARK  126  A    between atoms: _313  and  _314
REMARK  127  A    between atoms: _314  and  _315
REMARK  128  A    between atoms: _315  and  CA_629
REMARK  129  A    between atoms: _317  and  _319
REMARK  130  A    between atoms: _319  and  _320
REMARK  131  A    between atoms: _319  and  _322
REMARK  132  A    between atoms: _322  and  _323
REMARK  133  A    between atoms: _326  and  _328
REMARK  134  A    between atoms: _328  and  _329
REMARK  135  A    between atoms: _328  and  _331
REMARK  136  A    between atoms: _331  and  _332
REMARK  137  A    between atoms: _335  and  _337
REMARK  138  A    between atoms: _337  and  _338
REMARK  139  A    between atoms: _337  and  _340
REMARK  140  A    between atoms: _343  and  _345
REMARK  141  A    between atoms: _345  and  _346
REMARK  142  A    between atoms: _345  and  _348
REMARK  143  A    between atoms: _348  and  _349
REMARK  144  A    between atoms: _352  and  _354
REMARK  145  A    between atoms: _354  and  _355
REMARK  146  A    between atoms: _358  and  _359
REMARK  147  A    between atoms: _364  and  _366
REMARK  148  A    between atoms: _366  and  _367
REMARK  149  A    between atoms: _370  and  _372
REMARK  150  A    between atoms: _372  and  _373
REMARK  151  A    between atoms: _372  and  _375
REMARK  152  A    between atoms: _375  and  _376
REMARK  153  A    between atoms: _376  and  _377
REMARK  154  A    between atoms: _377  and  _378
REMARK  155  A    between atoms: _387  and  _389
REMARK  156  A    between atoms: _389  and  _390
REMARK  157  A    between atoms: _389  and  _392
REMARK  158  A    between atoms: _392  and  _393
REMARK  159  A    between atoms: _396  and  _398
REMARK  160  A    between atoms: _398  and  _399
REMARK  161  A    between atoms: _402  and  _404
REMARK  162  A    between atoms: _404  and  _405
REMARK  163  A    between atoms: _404  and  _407
REMARK  164  A    between atoms: _407  and  _408
REMARK  165  A    between atoms: _408  and  _409
REMARK  166  A    between atoms: _412  and  _414
REMARK  167  A    between atoms: _414  and  _415
REMARK  168  A    between atoms: _414  and  _417
REMARK  169  A    between atoms: _417  and  _418
REMARK  170  A    between atoms: _428  and  _430
REMARK  171  A    between atoms: _430  and  _431
REMARK  172  A    between atoms: _434  and  _436
REMARK  173  A    between atoms: _436  and  _437
REMARK  174  A    between atoms: _436  and  _439
REMARK  175  A    between atoms: _439  and  _440
REMARK  176  A    between atoms: _442  and  _444
REMARK  177  A    between atoms: _444  and  _445
REMARK  178  A    between atoms: _447  and  _449
REMARK  179  A    between atoms: _449  and  _450
REMARK  180  A    between atoms: _449  and  _452
REMARK  181  A    between atoms: _452  and  _453
REMARK  182  A    between atoms: _458  and  _460
REMARK  183  A    between atoms: _460  and  _461
REMARK  184  A    between atoms: _463  and  _465
REMARK  185  A    between atoms: _465  and  _466
REMARK  186  A    between atoms: _465  and  _468
REMARK  187  A    between atoms: _468  and  _469
REMARK  188  A    between atoms: _469  and  _471
REMARK  189  A    between atoms: _471  and  CA_629
REMARK  190  A    between atoms: _472  and  _474
REMARK  191  A    between atoms: _474  and  _475
REMARK  192  A    between atoms: _474  and  _477
REMARK  193  A    between atoms: _477  and  _478
REMARK  194  A    between atoms: _480  and  _482
REMARK  195  A    between atoms: _482  and  _483
REMARK  196  A    between atoms: _482  and  _485
REMARK  197  A    between atoms: _487  and  _489
REMARK  198  A    between atoms: _489  and  _490
REMARK  199  A    between atoms: _489  and  _492
REMARK  200  A    between atoms: _494  and  _496
REMARK  201  A    between atoms: _496  and  _497
REMARK  202  A    between atoms: _496  and  _499
REMARK  203  A    between atoms: _499  and  _500
REMARK  204  A    between atoms: _503  and  _505
REMARK  205  A    between atoms: _505  and  _506
REMARK  206  A    between atoms: _508  and  _510
REMARK  207  A    between atoms: _510  and  _511
REMARK  208  A    between atoms: _510  and  _513
REMARK  209  A    between atoms: _513  and  _514
REMARK  210  A    between atoms: _519  and  _520
REMARK  211  A    between atoms: _522  and  _524
REMARK  212  A    between atoms: _524  and  _525
REMARK  213  A    between atoms: _524  and  _527
REMARK  214  A    between atoms: _527  and  _528
REMARK  215  A    between atoms: _531  and  _533
REMARK  216  A    between atoms: _533  and  _534
REMARK  217  A    between atoms: _533  and  _536
REMARK  218  A    between atoms: _536  and  _537
REMARK  219  A    between atoms: _542  and  _544
REMARK  220  A    between atoms: _544  and  _545
REMARK  221  A    between atoms: _544  and  _547
REMARK  222  A    between atoms: _547  and  _548
REMARK  223  A    between atoms: _551  and  _553
REMARK  224  A    between atoms: _553  and  _554
REMARK  225  A    between atoms: _553  and  _556
REMARK  226  A    between atoms: _556  and  _557
REMARK  227  A    between atoms: _559  and  _561
REMARK  228  A    between atoms: _561  and  _562
REMARK  229  A    between atoms: _561  and  _564
REMARK  230  A    between atoms: _564  and  _565
REMARK  231  A    between atoms: _568  and  _570
REMARK  232  A    between atoms: _570  and  _571
REMARK  233  A    between atoms: _570  and  _573
REMARK  234  A    between atoms: _573  and  _574
REMARK  235  A    between atoms: _574  and  _575
REMARK  236  A    between atoms: _578  and  _580
REMARK  237  A    between atoms: _580  and  _581
REMARK  238  A    between atoms: _580  and  _583
REMARK  239  A    between atoms: _583  and  _584
REMARK  240  A    between atoms: _587  and  _589
REMARK  241  A    between atoms: _589  and  _590
REMARK  242  A    between atoms: _592  and  _594
REMARK  243  A    between atoms: _594  and  _595
REMARK  244  A    between atoms: _594  and  _597
REMARK  245  A    between atoms: _597  and  _598
REMARK  246  A    between atoms: _601  and  _603
REMARK  247  A    between atoms: _603  and  _604
REMARK  248  A    between atoms: _603  and  _606
REMARK  249  A    between atoms: _606  and  _607
REMARK  250  A    between atoms: _609  and  _611
REMARK  251  A    between atoms: _611  and  _612
REMARK  252  A    between atoms: _615  and  _617
REMARK  253  A    between atoms: _617  and  _618
REMARK  254  A    between atoms: _617  and  _620
REMARK  255  A    between atoms: _620  and  _621
REMARK  256  A    between atoms: _623  and  _625
REMARK  257  A    between atoms: _625  and  _626
REMARK                            x       y       z     vdW  Elec       q    Type
REMARK                         _______ _______ _______ _____ _____    ______ ____
ROOT
ATOM      1  CA  CYS A   1      20.537  36.792   4.694  0.00  0.00    +0.145 C 
ENDROOT
BRANCH   1   2
ATOM      2  N   CYS A   1      21.000  38.039   4.095  0.00  0.00    -0.238 NA
ATOM      3  H   CYS A   1      21.857  38.043   3.506  0.00  0.00    +0.142 HD
ENDBRANCH   1   2
BRANCH   1   4
ATOM      4  C   CYS A   1      20.606  36.846   6.231  0.00  0.00    +0.225 C 
ATOM      5  O   CYS A   1      19.712  36.354   6.913  0.00  0.00    -0.287 OA
ENDBRANCH   1   4
BRANCH   1   6
ATOM      6  CB  CYS A   1      21.367  35.613   4.161  0.00  0.00    +0.094 C 
ATOM      7  SG  CYS A   1      21.132  35.280   2.364  0.00  0.00    -0.080 S 
ENDBRANCH   1   6
TORSDOF 3
REMARK  Name = ../refined-set-2016/4omc/4omc_pocket.pdb
REMARK  257 active torsions:
REMARK  status: ('A' for Active; 'I' for Inactive)
REMARK    1  A    between atoms: _1  and  _3
REMARK    2  A    between atoms: _3  and  _4
REMARK    3  A    between atoms: _3  and  _6
REMARK    4  A    between atoms: _6  and  _7
REMARK    5  A    between atoms: _10  and  _12
REMARK    6  A    between atoms: _12  and  _13
REMARK    7  A    between atoms: _12  and  _15
REMARK    8  A    between atoms: _15  and  _16
REMARK    9  A    between atoms: _19  and  _21
REMARK   10  A    between atoms: _21  and  _22
REMARK   11  A    between atoms: _24  and  _26
REMARK   12  A    between atoms: _26  and  _27
REMARK   13  A    between atoms: _26  and  _29
REMARK   14  A    between atoms: _29  and  _30
REMARK   15  A    between atoms: _35  and  _37
REMARK   16  A    between atoms: _37  and  _38
REMARK   17  A    between atoms: _37  and  _40
REMARK   18  A    between atoms: _40  and  _41
REMARK   19  A    between atoms: _41  and  _42
REMARK   20  A    between atoms: _42  and  _43
REMARK   21  A    between atoms: _52  and  _54
REMARK   22  A    between atoms: _54  and  _55
REMARK   23  A    between atoms: _54  and  _57
REMARK   24  A    between atoms: _57  and  _58
REMARK   25  A    between atoms: _61  and  _63
REMARK   26  A    between atoms: _63  and  _64
REMARK   27  A    between atoms: _63  and  _66
REMARK   28  A    between atoms: _66  and  _67
REMARK   29  A    between atoms: _72  and  _74
REMARK   30  A    between atoms: _74  and  _75
REMARK   31  A    between atoms: _74  and  _77
REMARK   32  A    between atoms: _77  and  _78
REMARK   33  A    between atoms: _81  and  _83
REMARK   34  A    between atoms: _83  and  _84
REMARK   35  A    between atoms: _83  and  _86
REMARK   36  A    between atoms: _86  and  _87
REMARK   37  A    between atoms: _92  and  _94
REMARK   38  A    between atoms: _94  and  _95
REMARK   39  A    between atoms: _94  and  _97
REMARK   40  A    between atoms: _97  and  _98
REMARK   41  A    between atoms: _98  and  _99
REMARK   42  A    between atoms: _99  and  _100
REMARK   43  A    between atoms: _109  and  _111
REMARK   44  A    between atoms: _111  and  _112
REMARK   45  A    between atoms: _111  and  _114
REMARK   46  A    between atoms: _114  and  _115
REMARK   47  A    between atoms: _120  and  _122
REMARK   48  A    between atoms: _122  and  _123
REMARK   49  A    between atoms: _125  and  _127
REMARK   50  A    between atoms: _127  and  _128
REMARK   51  A    between atoms: _127  and  _130
REMARK   52  A    between atoms: _130  and  _131
REMARK   53  A    between atoms: _134  and  _136
REMARK   54  A    between atoms: _136  and  _137
REMARK   55  A    between atoms: _136  and  _139
REMARK   56  A    between atoms: _141  and  _143
REMARK   57  A    between atoms: _143  and  _144
REMARK   58  A    between atoms: _143  and  _146
REMARK   59  A    between atoms: _146  and  _147
REMARK   60  A    between atoms: _147  and  _148
REMARK   61  A    between atoms: _148  and  _149
REMARK   62  A    between atoms: _158  and  _160
REMARK   63  A    between atoms: _160  and  _161
REMARK   64  A    between atoms: _160  and  _163
REMARK   65  A    between atoms: _163  and  _164
REMARK   66  A    between atoms: _164  and  _165
REMARK   67  A    between atoms: _167  and  _169
REMARK   68  A    between atoms: _169  and  _170
REMARK   69  A    between atoms: _169  and  _172
REMARK   70  A    between atoms: _172  and  _173
REMARK   71  A    between atoms: _176  and  _178
REMARK   72  A    between atoms: _178  and  _179
REMARK   73  A    between atoms: _178  and  _181
REMARK   74  A    between atoms: _181  and  _182
REMARK   75  A    between atoms: _185  and  _187
REMARK   76  A    between atoms: _187  and  _188
REMARK   77  A    between atoms: _190  and  _192
REMARK   78  A    between atoms: _192  and  _193
REMARK   79  A    between atoms: _192  and  _195
REMARK   80  A    between atoms: _195  and  _196
REMARK   81  A    between atoms: _196  and  _197
REMARK   82  A    between atoms: _200  and  _202
REMARK   83  A    between atoms: _202  and  _203
REMARK   84  A    between atoms: _202  and  _205
REMARK   85  A    between atoms: _208  and  _210
REMARK   86  A    between atoms: _210  and  _211
REMARK   87  A    between atoms: _210  and  _213
REMARK   88  A    between atoms: _213  and  _214
REMARK   89  A    between atoms: _217  and  _219
REMARK   90  A    between atoms: _219  and  _220
REMARK   91  A    between atoms: _219  and  _222
REMARK   92  A    between atoms: _222  and  _223
REMARK   93  A    between atoms: _226  and  _228
REMARK   94  A    between atoms: _228  and  _229
REMARK   95  A    between atoms: _232  and  _234
REMARK   96  A    between atoms: _234  and  _235
REMARK   97  A    between atoms: _234  and  _237
REMARK   98  A    between atoms: _240  and  _242
REMARK   99  A    between atoms: _242  and  _243
REMARK  100  A    between atoms: _242  and  _245
REMARK  101  A    between atoms: _245  and  _246
REMARK  102  A    between atoms: _246  and  _247
REMARK  103  A    between atoms: _250  and  _252
REMARK  104  A    between atoms: _252  and  _253
REMARK  105  A    between atoms: _256  and  _258
REMARK  106  A    between atoms: _258  and  _259
REMARK  107  A    between atoms: _262  and  _264
REMARK  108  A    between atoms: _264  and  _265
REMARK  109  A    between atoms: _264  and  _267
REMARK  110  A    between atoms: _267  and  _268
REMARK  111  A    between atoms: _270  and  _272
REMARK  112  A    between atoms: _272  and  _273
REMARK  113  A    between atoms: _272  and  _275
REMARK  114  A    between atoms: _275  and  _276
REMARK  115  A    between atoms: _286  and  _288
REMARK  116  A    between atoms: _288  and  _289
REMARK  117  A    between atoms: _292  and  _293
REMARK  118  A    between atoms: _298  and  _300
REMARK  119  A    between atoms: _300  and  _301
REMARK  120  A    between atoms: _300  and  _303
REMARK  121  A    between atoms: _303  and  _304
REMARK  122  A    between atoms: _304  and  _305
REMARK  123  A    between atoms: _308  and  _310
REMARK  124  A    between atoms: _310  and  _311
REMARK  125  A    between atoms: _310  and  _313
REMARK  126  A    between atoms: _313  and  _314
REMARK  127  A    between atoms: _314  and  _315
REMARK  128  A    between atoms: _315  and  CA_629
REMARK  129  A    between atoms: _317  and  _319
REMARK  130  A    between atoms: _319  and  _320
REMARK  131  A    between atoms: _319  and  _322
REMARK  132  A    between atoms: _322  and  _323
REMARK  133  A    between atoms: _326  and  _328
REMARK  134  A    between atoms: _328  and  _329
REMARK  135  A    between atoms: _328  and  _331
REMARK  136  A    between atoms: _331  and  _332
REMARK  137  A    between atoms: _335  and  _337
REMARK  138  A    between atoms: _337  and  _338
REMARK  139  A    between atoms: _337  and  _340
REMARK  140  A    between atoms: _343  and  _345
REMARK  141  A    between atoms: _345  and  _346
REMARK  142  A    between atoms: _345  and  _348
REMARK  143  A    between atoms: _348  and  _349
REMARK  144  A    between atoms: _352  and  _354
REMARK  145  A    between atoms: _354  and  _355
REMARK  146  A    between atoms: _358  and  _359
REMARK  147  A    between atoms: _364  and  _366
REMARK  148  A    between atoms: _366  and  _367
REMARK  149  A    between atoms: _370  and  _372
REMARK  150  A    between atoms: _372  and  _373
REMARK  151  A    between atoms: _372  and  _375
REMARK  152  A    between atoms: _375  and  _376
REMARK  153  A    between atoms: _376  and  _377
REMARK  154  A    between atoms: _377  and  _378
REMARK  155  A    between atoms: _387  and  _389
REMARK  156  A    between atoms: _389  and  _390
REMARK  157  A    between atoms: _389  and  _392
REMARK  158  A    between atoms: _392  and  _393
REMARK  159  A    between atoms: _396  and  _398
REMARK  160  A    between atoms: _398  and  _399
REMARK  161  A    between atoms: _402  and  _404
REMARK  162  A    between atoms: _404  and  _405
REMARK  163  A    between atoms: _404  and  _407
REMARK  164  A    between atoms: _407  and  _408
REMARK  165  A    between atoms: _408  and  _409
REMARK  166  A    between atoms: _412  and  _414
REMARK  167  A    between atoms: _414  and  _415
REMARK  168  A    between atoms: _414  and  _417
REMARK  169  A    between atoms: _417  and  _418
REMARK  170  A    between atoms: _428  and  _430
REMARK  171  A    between atoms: _430  and  _431
REMARK  172  A    between atoms: _434  and  _436
REMARK  173  A    between atoms: _436  and  _437
REMARK  174  A    between atoms: _436  and  _439
REMARK  175  A    between atoms: _439  and  _440
REMARK  176  A    between atoms: _442  and  _444
REMARK  177  A    between atoms: _444  and  _445
REMARK  178  A    between atoms: _447  and  _449
REMARK  179  A    between atoms: _449  and  _450
REMARK  180  A    between atoms: _449  and  _452
REMARK  181  A    between atoms: _452  and  _453
REMARK  182  A    between atoms: _458  and  _460
REMARK  183  A    between atoms: _460  and  _461
REMARK  184  A    between atoms: _463  and  _465
REMARK  185  A    between atoms: _465  and  _466
REMARK  186  A    between atoms: _465  and  _468
REMARK  187  A    between atoms: _468  and  _469
REMARK  188  A    between atoms: _469  and  _471
REMARK  189  A    between atoms: _471  and  CA_629
REMARK  190  A    between atoms: _472  and  _474
REMARK  191  A    between atoms: _474  and  _475
REMARK  192  A    between atoms: _474  and  _477
REMARK  193  A    between atoms: _477  and  _478
REMARK  194  A    between atoms: _480  and  _482
REMARK  195  A    between atoms: _482  and  _483
REMARK  196  A    between atoms: _482  and  _485
REMARK  197  A    between atoms: _487  and  _489
REMARK  198  A    between atoms: _489  and  _490
REMARK  199  A    between atoms: _489  and  _492
REMARK  200  A    between atoms: _494  and  _496
REMARK  201  A    between atoms: _496  and  _497
REMARK  202  A    between atoms: _496  and  _499
REMARK  203  A    between atoms: _499  and  _500
REMARK  204  A    between atoms: _503  and  _505
REMARK  205  A    between atoms: _505  and  _506
REMARK  206  A    between atoms: _508  and  _510
REMARK  207  A    between atoms: _510  and  _511
REMARK  208  A    between atoms: _510  and  _513
REMARK  209  A    between atoms: _513  and  _514
REMARK  210  A    between atoms: _519  and  _520
REMARK  211  A    between atoms: _522  and  _524
REMARK  212  A    between atoms: _524  and  _525
REMARK  213  A    between atoms: _524  and  _527
REMARK  214  A    between atoms: _527  and  _528
REMARK  215  A    between atoms: _531  and  _533
REMARK  216  A    between atoms: _533  and  _534
REMARK  217  A    between atoms: _533  and  _536
REMARK  218  A    between atoms: _536  and  _537
REMARK  219  A    between atoms: _542  and  _544
REMARK  220  A    between atoms: _544  and  _545
REMARK  221  A    between atoms: _544  and  _547
REMARK  222  A    between atoms: _547  and  _548
REMARK  223  A    between atoms: _551  and  _553
REMARK  224  A    between atoms: _553  and  _554
REMARK  225  A    between atoms: _553  and  _556
REMARK  226  A    between atoms: _556  and  _557
REMARK  227  A    between atoms: _559  and  _561
REMARK  228  A    between atoms: _561  and  _562
REMARK  229  A    between atoms: _561  and  _564
REMARK  230  A    between atoms: _564  and  _565
REMARK  231  A    between atoms: _568  and  _570
REMARK  232  A    between atoms: _570  and  _571
REMARK  233  A    between atoms: _570  and  _573
REMARK  234  A    between atoms: _573  and  _574
REMARK  235  A    between atoms: _574  and  _575
REMARK  236  A    between atoms: _578  and  _580
REMARK  237  A    between atoms: _580  and  _581
REMARK  238  A    between atoms: _580  and  _583
REMARK  239  A    between atoms: _583  and  _584
REMARK  240  A    between atoms: _587  and  _589
REMARK  241  A    between atoms: _589  and  _590
REMARK  242  A    between atoms: _592  and  _594
REMARK  243  A    between atoms: _594  and  _595
REMARK  244  A    between atoms: _594  and  _597
REMARK  245  A    between atoms: _597  and  _598
REMARK  246  A    between atoms: _601  and  _603
REMARK  247  A    between atoms: _603  and  _604
REMARK  248  A    between atoms: _603  and  _606
REMARK  249  A    between atoms: _606  and  _607
REMARK  250  A    between atoms: _609  and  _611
REMARK  251  A    between atoms: _611  and  _612
REMARK  252  A    between atoms: _615  and  _617
REMARK  253  A    between atoms: _617  and  _618
REMARK  254  A    between atoms: _617  and  _620
REMARK  255  A    between atoms: _620  and  _621
REMARK  256  A    between atoms: _623  and  _625
REMARK  257  A    between atoms: _625  and  _626
REMARK                            x       y       z     vdW  Elec       q    Type
REMARK                         _______ _______ _______ _____ _____    ______ ____
ROOT
ATOM      1  C   GLU A   6      37.237  29.634  -3.620  0.00  0.00    +0.241 C 
ATOM      2  O   GLU A   6      37.690  29.493  -2.487  0.00  0.00    -0.273 OA
ATOM      3  N   VAL A   7      36.104  29.059  -4.013  0.00  0.00    -0.297 N 
ATOM      4  H   VAL A   7      35.750  29.224  -4.977  0.00  0.00    +0.150 HD
ENDROOT
BRANCH   3   5
ATOM      5  CA  VAL A   7      35.354  28.200  -3.107  0.00  0.00    +0.149 C 
BRANCH   5   6
ATOM      6  C   VAL A   7      35.723  26.737  -3.329  0.00  0.00    +0.241 C 
ATOM      7  N   THR A   8      36.700  26.266  -2.560  0.00  0.00    -0.295 N 
ATOM      8  H   THR A   8      37.135  26.902  -1.861  0.00  0.00    +0.150 HD
ATOM      9  O   VAL A   7      35.128  26.052  -4.163  0.00  0.00    -0.273 OA
BRANCH   7  10
ATOM     10  CA  THR A   8      37.187  24.896  -2.655  0.00  0.00    +0.176 C 
BRANCH  10  11
ATOM     11  C   THR A   8      36.524  23.978  -1.631  0.00  0.00    +0.243 C 
ATOM     12  O   THR A   8      35.805  24.425  -0.731  0.00  0.00    -0.273 OA
ATOM     13  N   ASP A   9      36.809  22.688  -1.758  0.00  0.00    -0.296 N 
ATOM     14  H   ASP A   9      37.420  22.379  -2.541  0.00  0.00    +0.150 HD
BRANCH  13  15
ATOM     15  CA  ASP A   9      36.290  21.696  -0.833  0.00  0.00    +0.160 C 
BRANCH  15  16
ATOM     16  C   ASP A   9      36.764  22.056   0.578  0.00  0.00    +0.241 C 
ATOM     17  O   ASP A   9      36.003  21.992   1.532  0.00  0.00    -0.273 OA
ATOM     18  N   ALA A  10      38.028  22.443   0.704  0.00  0.00    -0.297 N 
ATOM     19  H   ALA A  10      38.634  22.489  -0.140  0.00  0.00    +0.150 HD
BRANCH  18  20
ATOM     20  CA  ALA A  10      38.584  22.805   2.005  0.00  0.00    +0.149 C 
ATOM     21  CB  ALA A  10      40.062  23.113   1.873  0.00  0.00    +0.031 C 
BRANCH  20  22
ATOM     22  C   ALA A  10      37.854  24.012   2.571  0.00  0.00    +0.241 C 
ATOM     23  O   ALA A  10      37.532  24.060   3.759  0.00  0.00    -0.273 OA
ATOM     24  N   VAL A  11      37.601  24.996   1.716  0.00  0.00    -0.297 N 
ATOM     25  H   VAL A  11      37.911  24.915   0.727  0.00  0.00    +0.150 HD
BRANCH  24  26
ATOM     26  CA  VAL A  11      36.892  26.185   2.158  0.00  0.00    +0.149 C 
BRANCH  26  27
ATOM     27  C   VAL A  11      35.519  25.792   2.703  0.00  0.00    +0.241 C 
ATOM     28  O   VAL A  11      35.120  26.220   3.787  0.00  0.00    -0.273 OA
ATOM     29  N   GLU A  12      34.808  24.955   1.959  0.00  0.00    -0.297 N 
ATOM     30  H   GLU A  12      35.199  24.605   1.061  0.00  0.00    +0.150 HD
BRANCH  29  31
ATOM     31  CA  GLU A  12      33.484  24.521   2.388  0.00  0.00    +0.149 C 
BRANCH  31  32
ATOM     32  C   GLU A  12      33.545  23.753   3.701  0.00  0.00    +0.241 C 
ATOM     33  O   GLU A  12      32.779  24.030   4.629  0.00  0.00    -0.273 OA
ATOM     34  N   ALA A  13      34.462  22.791   3.785  0.00  0.00    -0.298 N 
ATOM     35  H   ALA A  13      35.100  22.619   2.982  0.00  0.00    +0.150 HD
BRANCH  34  36
ATOM     36  CA  ALA A  13      34.584  21.977   4.986  0.00  0.00    +0.137 C 
ATOM     37  CB  ALA A  13      35.649  20.922   4.785  0.00  0.00    +0.030 C 
BRANCH  36  38
ATOM     38  C   ALA A  13      34.888  22.815   6.236  0.00  0.00    +0.227 C 
ATOM     39  O   ALA A  13      34.320  22.590   7.301  0.00  0.00    -0.286 OA
ENDBRANCH  36  38
ENDBRANCH  34  36
ENDBRANCH  31  32
BRANCH  31  40
ATOM     40  CB  GLU A  12      32.841  23.649   1.306  0.00  0.00    +0.041 C 
BRANCH  40  41
ATOM     41  CG  GLU A  12      32.363  24.431   0.079  0.00  0.00    +0.116 C 
BRANCH  41  42
ATOM     42  CD  GLU A  12      31.901  23.527  -1.055  0.00  0.00    +0.365 C 
ATOM     43  OE2 GLU A  12      31.514  22.365  -0.789  0.00  0.00    -0.246 OA
ATOM     44  OE1 GLU A  12      31.907  23.980  -2.216  0.00  0.00    -0.246 OA
ENDBRANCH  41  42
ENDBRANCH  40  41
ENDBRANCH  31  40
ENDBRANCH  29  31
ENDBRANCH  26  27
BRANCH  26  45
ATOM     45  CB  VAL A  11      36.720  27.189   1.003  0.00  0.00    +0.027 C 
ATOM     46  CG2 VAL A  11      35.619  28.190   1.335  0.00  0.00    +0.002 C 
ATOM     47  CG1 VAL A  11      38.042  27.932   0.774  0.00  0.00    +0.002 C 
ENDBRANCH  26  45
ENDBRANCH  24  26
ENDBRANCH  20  22
ENDBRANCH  18  20
ENDBRANCH  15  16
BRANCH  15  48
ATOM     48  CB  ASP A   9      36.790  20.300  -1.229  0.00  0.00    +0.143 C 
BRANCH  48  49
ATOM     49  CG  ASP A   9      36.259  19.208  -0.313  0.00  0.00    +0.367 C 
ATOM     50  OD2 ASP A   9      35.059  19.254   0.055  0.00  0.00    -0.246 OA
ATOM     51  OD1 ASP A   9      37.038  18.297   0.036  0.00  0.00    -0.246 OA
ENDBRANCH  48  49
ENDBRANCH  15  48
ENDBRANCH  13  15
ENDBRANCH  10  11
BRANCH  10  52
ATOM     52  CB  THR A   8      38.694  24.849  -2.372  0.00  0.00    +0.137 C 
ATOM     53  CG2 THR A   8      39.460  25.742  -3.337  0.00  0.00    +0.034 C 
BRANCH  52  54
ATOM     54  OG1 THR A   8      38.922  25.327  -1.044  0.00  0.00    -0.382 OA
ATOM     55  HG1 THR A   8      39.892  25.302  -0.848  0.00  0.00    +0.210 HD
ENDBRANCH  52  54
ENDBRANCH  10  52
ENDBRANCH   7  10
ENDBRANCH   5   6
BRANCH   5  56
ATOM     56  CB  VAL A   7      33.835  28.362  -3.295  0.00  0.00    +0.027 C 
ATOM     57  CG2 VAL A   7      33.103  27.459  -2.300  0.00  0.00    +0.002 C 
ATOM     58  CG1 VAL A   7      33.428  29.830  -3.113  0.00  0.00    +0.002 C 
ENDBRANCH   5  56
ENDBRANCH   3   5
BRANCH   1  59
ATOM     59  CA  GLU A   6      37.960  30.519  -4.635  0.00  0.00    +0.149 C 
BRANCH  59  61
ATOM     60  C   GLY A   5      36.985  32.614  -3.924  0.00  0.00    +0.243 C 
ATOM     61  N   GLU A   6      38.059  31.842  -4.040  0.00  0.00    -0.297 N 
ATOM     62  H   GLU A   6      38.980  32.187  -3.702  0.00  0.00    +0.150 HD
ATOM     63  O   GLY A   5      35.866  32.262  -4.316  0.00  0.00    -0.273 OA
BRANCH  60  64
ATOM     64  CA  GLY A   5      37.179  33.977  -3.282  0.00  0.00    +0.176 C 
BRANCH  64  67
ATOM     65  C   ASP A   4      35.701  35.430  -2.039  0.00  0.00    +0.241 C 
ATOM     66  O   ASP A   4      36.635  35.939  -1.421  0.00  0.00    -0.273 OA
ATOM     67  N   GLY A   5      35.868  34.496  -2.961  0.00  0.00    -0.295 N 
ATOM     68  H   GLY A   5      35.038  34.127  -3.466  0.00  0.00    +0.150 HD
BRANCH  65  69
ATOM     69  CA  ASP A   4      34.252  35.852  -1.805  0.00  0.00    +0.160 C 
BRANCH  69  71
ATOM     70  C   LEU A   3      32.837  33.876  -1.837  0.00  0.00    +0.241 C 
ATOM     71  N   ASP A   4      33.482  34.809  -1.141  0.00  0.00    -0.297 N 
ATOM     72  H   ASP A   4      33.435  34.793  -0.102  0.00  0.00    +0.150 HD
ATOM     73  O   LEU A   3      32.863  33.816  -3.073  0.00  0.00    -0.273 OA
BRANCH  70  74
ATOM     74  CA  LEU A   3      32.035  32.859  -1.030  0.00  0.00    +0.149 C 
BRANCH  74  76
ATOM     75  C   MET A   2      33.280  31.965   0.852  0.00  0.00    +0.241 C 
ATOM     76  N   LEU A   3      32.387  32.837   0.392  0.00  0.00    -0.297 N 
ATOM     77  H   LEU A   3      31.936  33.508   1.046  0.00  0.00    +0.150 HD
ATOM     78  O   MET A   2      33.837  31.158   0.120  0.00  0.00    -0.273 OA
BRANCH  75  79
ATOM     79  CA  MET A   2      33.622  32.004   2.336  0.00  0.00    +0.149 C 
BRANCH  79  82
ATOM     80  C   ARG A   1      33.740  33.715   4.054  0.00  0.00    +0.238 C 
ATOM     81  O   ARG A   1      34.910  33.431   4.335  0.00  0.00    -0.274 OA
ATOM     82  N   MET A   2      33.038  33.085   3.109  0.00  0.00    -0.297 N 
ATOM     83  H   MET A   2      32.056  33.374   2.924  0.00  0.00    +0.150 HD
BRANCH  80  84
ATOM     84  CA  ARG A   1      33.013  34.816   4.817  0.00  0.00    +0.145 C 
BRANCH  84  85
ATOM     85  N   ARG A   1      32.733  34.247   6.121  0.00  0.00    -0.238 NA
ATOM     86  H   ARG A   1      33.364  34.461   6.919  0.00  0.00    +0.142 HD
ENDBRANCH  84  85
BRANCH  84  87
ATOM     87  CB  ARG A   1      33.891  36.067   4.963  0.00  0.00    +0.030 C 
BRANCH  87  88
ATOM     88  CG  ARG A   1      34.308  36.720   3.646  0.00  0.00    +0.045 C 
BRANCH  88  89
ATOM     89  CD  ARG A   1      34.956  38.107   3.895  0.00  0.00    +0.174 C 
BRANCH  89  90
ATOM     90  NE  ARG A   1      35.401  38.756   2.661  0.00  0.00    -0.265 N 
ATOM     91  CZ  ARG A   1      36.643  38.699   2.180  0.00  0.00    +0.342 C 
ATOM     92  NH2 ARG A   1      37.584  38.042   2.848  0.00  0.00    -0.292 N 
ATOM     93 HH21 ARG A   1      37.352  37.572   3.746  0.00  0.00    +0.255 HD
ATOM     94 HH22 ARG A   1      38.553  37.997   2.473  0.00  0.00    +0.255 HD
ATOM     95  NH1 ARG A   1      36.951  39.313   1.038  0.00  0.00    -0.292 N 
ATOM     96 HH11 ARG A   1      37.922  39.265   0.667  0.00  0.00    +0.255 HD
ATOM     97 HH12 ARG A   1      36.221  39.840   0.518  0.00  0.00    +0.255 HD
ATOM     98  HE  ARG A   1      34.698  39.300   2.121  0.00  0.00    +0.259 HD
ENDBRANCH  89  90
ENDBRANCH  88  89
ENDBRANCH  87  88
ENDBRANCH  84  87
ENDBRANCH  80  84
ENDBRANCH  79  82
BRANCH  79  99
ATOM     99  CB  MET A   2      33.295  30.658   2.988  0.00  0.00    +0.041 C 
BRANCH  99 100
ATOM    100  CG  MET A   2      31.841  30.491   3.442  0.00  0.00    +0.060 C 
BRANCH 100 101
ATOM    101  SD  MET A   2      30.705  30.079   2.131  0.00  0.00    -0.139 S 
ATOM    102  CE  MET A   2      31.299  28.463   1.685  0.00  0.00    +0.069 C 
ENDBRANCH 100 101
ENDBRANCH  99 100
ENDBRANCH  79  99
ENDBRANCH  75  79
ENDBRANCH  74  76
BRANCH  74 103
ATOM    103  CB  LEU A   3      30.564  33.188  -1.228  0.00  0.00    +0.029 C 
BRANCH 103 104
ATOM    104  CG  LEU A   3      29.535  32.183  -0.754  0.00  0.00    +0.002 C 
ATOM    105  CD2 LEU A   3      28.141  32.754  -1.004  0.00  0.00    +0.000 C 
ATOM    106  CD1 LEU A   3      29.754  30.844  -1.476  0.00  0.00    +0.000 C 
ENDBRANCH 103 104
ENDBRANCH  74 103
ENDBRANCH  70  74
ENDBRANCH  69  71
BRANCH  69 107
ATOM    107  CB  ASP A   4      34.182  37.143  -0.989  0.00  0.00    +0.143 C 
BRANCH 107 108
ATOM    108  CG  ASP A   4      34.663  38.346  -1.774  0.00  0.00    +0.367 C 
ATOM    109  OD2 ASP A   4      34.976  39.379  -1.151  0.00  0.00    -0.246 OA
ATOM    110  OD1 ASP A   4      34.716  38.253  -3.019  0.00  0.00    -0.246 OA
ENDBRANCH 107 108
ENDBRANCH  69 107
ENDBRANCH  65  69
ENDBRANCH  64  67
ENDBRANCH  60  64
ENDBRANCH  59  61
BRANCH  59 111
ATOM    111  CB  GLU A   6      39.354  29.957  -4.921  0.00  0.00    +0.041 C 
BRANCH 111 112
ATOM    112  CG  GLU A   6      39.419  29.091  -6.183  0.00  0.00    +0.116 C 
BRANCH 112 113
ATOM    113  CD  GLU A   6      40.658  28.181  -6.229  0.00  0.00    +0.365 C 
ATOM    114  OE2 GLU A   6      41.781  28.657  -5.919  0.00  0.00    -0.246 OA
ATOM    115  OE1 GLU A   6      40.504  26.985  -6.584  0.00  0.00    -0.246 OA
ENDBRANCH 112 113
ENDBRANCH 111 112
ENDBRANCH  59 111
ENDBRANCH   1  59
TORSDOF 49
REMARK  Name = ../refined-set-2016/4omc/4omc_pocket.pdb
REMARK  257 active torsions:
REMARK  status: ('A' for Active; 'I' for Inactive)
REMARK    1  A    between atoms: _1  and  _3
REMARK    2  A    between atoms: _3  and  _4
REMARK    3  A    between atoms: _3  and  _6
REMARK    4  A    between atoms: _6  and  _7
REMARK    5  A    between atoms: _10  and  _12
REMARK    6  A    between atoms: _12  and  _13
REMARK    7  A    between atoms: _12  and  _15
REMARK    8  A    between atoms: _15  and  _16
REMARK    9  A    between atoms: _19  and  _21
REMARK   10  A    between atoms: _21  and  _22
REMARK   11  A    between atoms: _24  and  _26
REMARK   12  A    between atoms: _26  and  _27
REMARK   13  A    between atoms: _26  and  _29
REMARK   14  A    between atoms: _29  and  _30
REMARK   15  A    between atoms: _35  and  _37
REMARK   16  A    between atoms: _37  and  _38
REMARK   17  A    between atoms: _37  and  _40
REMARK   18  A    between atoms: _40  and  _41
REMARK   19  A    between atoms: _41  and  _42
REMARK   20  A    between atoms: _42  and  _43
REMARK   21  A    between atoms: _52  and  _54
REMARK   22  A    between atoms: _54  and  _55
REMARK   23  A    between atoms: _54  and  _57
REMARK   24  A    between atoms: _57  and  _58
REMARK   25  A    between atoms: _61  and  _63
REMARK   26  A    between atoms: _63  and  _64
REMARK   27  A    between atoms: _63  and  _66
REMARK   28  A    between atoms: _66  and  _67
REMARK   29  A    between atoms: _72  and  _74
REMARK   30  A    between atoms: _74  and  _75
REMARK   31  A    between atoms: _74  and  _77
REMARK   32  A    between atoms: _77  and  _78
REMARK   33  A    between atoms: _81  and  _83
REMARK   34  A    between atoms: _83  and  _84
REMARK   35  A    between atoms: _83  and  _86
REMARK   36  A    between atoms: _86  and  _87
REMARK   37  A    between atoms: _92  and  _94
REMARK   38  A    between atoms: _94  and  _95
REMARK   39  A    between atoms: _94  and  _97
REMARK   40  A    between atoms: _97  and  _98
REMARK   41  A    between atoms: _98  and  _99
REMARK   42  A    between atoms: _99  and  _100
REMARK   43  A    between atoms: _109  and  _111
REMARK   44  A    between atoms: _111  and  _112
REMARK   45  A    between atoms: _111  and  _114
REMARK   46  A    between atoms: _114  and  _115
REMARK   47  A    between atoms: _120  and  _122
REMARK   48  A    between atoms: _122  and  _123
REMARK   49  A    between atoms: _125  and  _127
REMARK   50  A    between atoms: _127  and  _128
REMARK   51  A    between atoms: _127  and  _130
REMARK   52  A    between atoms: _130  and  _131
REMARK   53  A    between atoms: _134  and  _136
REMARK   54  A    between atoms: _136  and  _137
REMARK   55  A    between atoms: _136  and  _139
REMARK   56  A    between atoms: _141  and  _143
REMARK   57  A    between atoms: _143  and  _144
REMARK   58  A    between atoms: _143  and  _146
REMARK   59  A    between atoms: _146  and  _147
REMARK   60  A    between atoms: _147  and  _148
REMARK   61  A    between atoms: _148  and  _149
REMARK   62  A    between atoms: _158  and  _160
REMARK   63  A    between atoms: _160  and  _161
REMARK   64  A    between atoms: _160  and  _163
REMARK   65  A    between atoms: _163  and  _164
REMARK   66  A    between atoms: _164  and  _165
REMARK   67  A    between atoms: _167  and  _169
REMARK   68  A    between atoms: _169  and  _170
REMARK   69  A    between atoms: _169  and  _172
REMARK   70  A    between atoms: _172  and  _173
REMARK   71  A    between atoms: _176  and  _178
REMARK   72  A    between atoms: _178  and  _179
REMARK   73  A    between atoms: _178  and  _181
REMARK   74  A    between atoms: _181  and  _182
REMARK   75  A    between atoms: _185  and  _187
REMARK   76  A    between atoms: _187  and  _188
REMARK   77  A    between atoms: _190  and  _192
REMARK   78  A    between atoms: _192  and  _193
REMARK   79  A    between atoms: _192  and  _195
REMARK   80  A    between atoms: _195  and  _196
REMARK   81  A    between atoms: _196  and  _197
REMARK   82  A    between atoms: _200  and  _202
REMARK   83  A    between atoms: _202  and  _203
REMARK   84  A    between atoms: _202  and  _205
REMARK   85  A    between atoms: _208  and  _210
REMARK   86  A    between atoms: _210  and  _211
REMARK   87  A    between atoms: _210  and  _213
REMARK   88  A    between atoms: _213  and  _214
REMARK   89  A    between atoms: _217  and  _219
REMARK   90  A    between atoms: _219  and  _220
REMARK   91  A    between atoms: _219  and  _222
REMARK   92  A    between atoms: _222  and  _223
REMARK   93  A    between atoms: _226  and  _228
REMARK   94  A    between atoms: _228  and  _229
REMARK   95  A    between atoms: _232  and  _234
REMARK   96  A    between atoms: _234  and  _235
REMARK   97  A    between atoms: _234  and  _237
REMARK   98  A    between atoms: _240  and  _242
REMARK   99  A    between atoms: _242  and  _243
REMARK  100  A    between atoms: _242  and  _245
REMARK  101  A    between atoms: _245  and  _246
REMARK  102  A    between atoms: _246  and  _247
REMARK  103  A    between atoms: _250  and  _252
REMARK  104  A    between atoms: _252  and  _253
REMARK  105  A    between atoms: _256  and  _258
REMARK  106  A    between atoms: _258  and  _259
REMARK  107  A    between atoms: _262  and  _264
REMARK  108  A    between atoms: _264  and  _265
REMARK  109  A    between atoms: _264  and  _267
REMARK  110  A    between atoms: _267  and  _268
REMARK  111  A    between atoms: _270  and  _272
REMARK  112  A    between atoms: _272  and  _273
REMARK  113  A    between atoms: _272  and  _275
REMARK  114  A    between atoms: _275  and  _276
REMARK  115  A    between atoms: _286  and  _288
REMARK  116  A    between atoms: _288  and  _289
REMARK  117  A    between atoms: _292  and  _293
REMARK  118  A    between atoms: _298  and  _300
REMARK  119  A    between atoms: _300  and  _301
REMARK  120  A    between atoms: _300  and  _303
REMARK  121  A    between atoms: _303  and  _304
REMARK  122  A    between atoms: _304  and  _305
REMARK  123  A    between atoms: _308  and  _310
REMARK  124  A    between atoms: _310  and  _311
REMARK  125  A    between atoms: _310  and  _313
REMARK  126  A    between atoms: _313  and  _314
REMARK  127  A    between atoms: _314  and  _315
REMARK  128  A    between atoms: _315  and  CA_629
REMARK  129  A    between atoms: _317  and  _319
REMARK  130  A    between atoms: _319  and  _320
REMARK  131  A    between atoms: _319  and  _322
REMARK  132  A    between atoms: _322  and  _323
REMARK  133  A    between atoms: _326  and  _328
REMARK  134  A    between atoms: _328  and  _329
REMARK  135  A    between atoms: _328  and  _331
REMARK  136  A    between atoms: _331  and  _332
REMARK  137  A    between atoms: _335  and  _337
REMARK  138  A    between atoms: _337  and  _338
REMARK  139  A    between atoms: _337  and  _340
REMARK  140  A    between atoms: _343  and  _345
REMARK  141  A    between atoms: _345  and  _346
REMARK  142  A    between atoms: _345  and  _348
REMARK  143  A    between atoms: _348  and  _349
REMARK  144  A    between atoms: _352  and  _354
REMARK  145  A    between atoms: _354  and  _355
REMARK  146  A    between atoms: _358  and  _359
REMARK  147  A    between atoms: _364  and  _366
REMARK  148  A    between atoms: _366  and  _367
REMARK  149  A    between atoms: _370  and  _372
REMARK  150  A    between atoms: _372  and  _373
REMARK  151  A    between atoms: _372  and  _375
REMARK  152  A    between atoms: _375  and  _376
REMARK  153  A    between atoms: _376  and  _377
REMARK  154  A    between atoms: _377  and  _378
REMARK  155  A    between atoms: _387  and  _389
REMARK  156  A    between atoms: _389  and  _390
REMARK  157  A    between atoms: _389  and  _392
REMARK  158  A    between atoms: _392  and  _393
REMARK  159  A    between atoms: _396  and  _398
REMARK  160  A    between atoms: _398  and  _399
REMARK  161  A    between atoms: _402  and  _404
REMARK  162  A    between atoms: _404  and  _405
REMARK  163  A    between atoms: _404  and  _407
REMARK  164  A    between atoms: _407  and  _408
REMARK  165  A    between atoms: _408  and  _409
REMARK  166  A    between atoms: _412  and  _414
REMARK  167  A    between atoms: _414  and  _415
REMARK  168  A    between atoms: _414  and  _417
REMARK  169  A    between atoms: _417  and  _418
REMARK  170  A    between atoms: _428  and  _430
REMARK  171  A    between atoms: _430  and  _431
REMARK  172  A    between atoms: _434  and  _436
REMARK  173  A    between atoms: _436  and  _437
REMARK  174  A    between atoms: _436  and  _439
REMARK  175  A    between atoms: _439  and  _440
REMARK  176  A    between atoms: _442  and  _444
REMARK  177  A    between atoms: _444  and  _445
REMARK  178  A    between atoms: _447  and  _449
REMARK  179  A    between atoms: _449  and  _450
REMARK  180  A    between atoms: _449  and  _452
REMARK  181  A    between atoms: _452  and  _453
REMARK  182  A    between atoms: _458  and  _460
REMARK  183  A    between atoms: _460  and  _461
REMARK  184  A    between atoms: _463  and  _465
REMARK  185  A    between atoms: _465  and  _466
REMARK  186  A    between atoms: _465  and  _468
REMARK  187  A    between atoms: _468  and  _469
REMARK  188  A    between atoms: _469  and  _471
REMARK  189  A    between atoms: _471  and  CA_629
REMARK  190  A    between atoms: _472  and  _474
REMARK  191  A    between atoms: _474  and  _475
REMARK  192  A    between atoms: _474  and  _477
REMARK  193  A    between atoms: _477  and  _478
REMARK  194  A    between atoms: _480  and  _482
REMARK  195  A    between atoms: _482  and  _483
REMARK  196  A    between atoms: _482  and  _485
REMARK  197  A    between atoms: _487  and  _489
REMARK  198  A    between atoms: _489  and  _490
REMARK  199  A    between atoms: _489  and  _492
REMARK  200  A    between atoms: _494  and  _496
REMARK  201  A    between atoms: _496  and  _497
REMARK  202  A    between atoms: _496  and  _499
REMARK  203  A    between atoms: _499  and  _500
REMARK  204  A    between atoms: _503  and  _505
REMARK  205  A    between atoms: _505  and  _506
REMARK  206  A    between atoms: _508  and  _510
REMARK  207  A    between atoms: _510  and  _511
REMARK  208  A    between atoms: _510  and  _513
REMARK  209  A    between atoms: _513  and  _514
REMARK  210  A    between atoms: _519  and  _520
REMARK  211  A    between atoms: _522  and  _524
REMARK  212  A    between atoms: _524  and  _525
REMARK  213  A    between atoms: _524  and  _527
REMARK  214  A    between atoms: _527  and  _528
REMARK  215  A    between atoms: _531  and  _533
REMARK  216  A    between atoms: _533  and  _534
REMARK  217  A    between atoms: _533  and  _536
REMARK  218  A    between atoms: _536  and  _537
REMARK  219  A    between atoms: _542  and  _544
REMARK  220  A    between atoms: _544  and  _545
REMARK  221  A    between atoms: _544  and  _547
REMARK  222  A    between atoms: _547  and  _548
REMARK  223  A    between atoms: _551  and  _553
REMARK  224  A    between atoms: _553  and  _554
REMARK  225  A    between atoms: _553  and  _556
REMARK  226  A    between atoms: _556  and  _557
REMARK  227  A    between atoms: _559  and  _561
REMARK  228  A    between atoms: _561  and  _562
REMARK  229  A    between atoms: _561  and  _564
REMARK  230  A    between atoms: _564  and  _565
REMARK  231  A    between atoms: _568  and  _570
REMARK  232  A    between atoms: _570  and  _571
REMARK  233  A    between atoms: _570  and  _573
REMARK  234  A    between atoms: _573  and  _574
REMARK  235  A    between atoms: _574  and  _575
REMARK  236  A    between atoms: _578  and  _580
REMARK  237  A    between atoms: _580  and  _581
REMARK  238  A    between atoms: _580  and  _583
REMARK  239  A    between atoms: _583  and  _584
REMARK  240  A    between atoms: _587  and  _589
REMARK  241  A    between atoms: _589  and  _590
REMARK  242  A    between atoms: _592  and  _594
REMARK  243  A    between atoms: _594  and  _595
REMARK  244  A    between atoms: _594  and  _597
REMARK  245  A    between atoms: _597  and  _598
REMARK  246  A    between atoms: _601  and  _603
REMARK  247  A    between atoms: _603  and  _604
REMARK  248  A    between atoms: _603  and  _606
REMARK  249  A    between atoms: _606  and  _607
REMARK  250  A    between atoms: _609  and  _611
REMARK  251  A    between atoms: _611  and  _612
REMARK  252  A    between atoms: _615  and  _617
REMARK  253  A    between atoms: _617  and  _618
REMARK  254  A    between atoms: _617  and  _620
REMARK  255  A    between atoms: _620  and  _621
REMARK  256  A    between atoms: _623  and  _625
REMARK  257  A    between atoms: _625  and  _626
REMARK                            x       y       z     vdW  Elec       q    Type
REMARK                         _______ _______ _______ _____ _____    ______ ____
ROOT
ATOM      1  CA  GLU A   6      25.724  26.763 -10.647  0.00  0.00    +0.000 C 
ENDROOT
BRANCH   1   2
ATOM      2  C   GLU A   6      24.422  26.099 -11.108  0.00  0.00    +0.000 C 
ATOM      3  N   UNK A   7      23.369  26.896 -11.269  0.00  0.00    +0.000 N 
ATOM      4  H   UNK A   7      23.466  27.915 -11.088  0.00  0.00    +0.000 HD
ATOM      5  O   GLU A   6      24.367  24.888 -11.296  0.00  0.00    +0.000 OA
BRANCH   3   6
ATOM      6  C   UNK A   7      22.081  26.363 -11.695  0.00  0.00    +0.000 C 
BRANCH   6   7
ATOM      7  C   UNK A   7      21.912  26.452 -13.214  0.00  0.00    +0.000 C 
ATOM      8  O   UNK A   7      20.950  27.053 -13.706  0.00  0.00    +0.000 OA
ATOM      9  N   ASP A   8      22.831  25.860 -13.967  0.00  0.00    +0.000 N 
ATOM     10  H   ASP A   8      23.620  25.341 -13.531  0.00  0.00    +0.000 HD
BRANCH   9  11
ATOM     11  CA  ASP A   8      22.712  25.952 -15.415  0.00  0.00    +0.000 C 
BRANCH  11  12
ATOM     12  C   ASP A   8      21.766  24.914 -15.996  0.00  0.00    +0.000 C 
ATOM     13  O   ASP A   8      21.471  24.948 -17.182  0.00  0.00    +0.000 OA
ENDBRANCH  11  12
BRANCH  11  14
ATOM     14  CB  ASP A   8      24.079  25.842 -16.084  0.00  0.00    +0.000 C 
BRANCH  14  15
ATOM     15  CG  ASP A   8      24.802  24.588 -15.705  0.00  0.00    +0.000 C 
ATOM     16  OD2 ASP A   8      24.148  23.689 -15.150  0.00  0.00    +0.000 OA
ATOM     17  OD1 ASP A   8      26.019  24.489 -15.971  0.00  0.00    +0.000 OA
ENDBRANCH  14  15
ENDBRANCH  11  14
ENDBRANCH   9  11
ENDBRANCH   6   7
BRANCH   6  18
ATOM     18  C   UNK A   7      20.943  27.129 -11.008  0.00  0.00    +0.000 C 
BRANCH  18  19
ATOM     19  C   UNK A   7      20.944  26.950  -9.505  0.00  0.00    +0.000 C 
ATOM     20  O   UNK A   7      20.807  27.967  -8.784  0.00  0.00    +0.000 OA
BRANCH  19  21
ATOM     21  O   UNK A   7      21.068  25.791  -9.048  0.00  0.00    +0.000 OA
BRANCH  21  22
ATOM     22 CA   UNK A   7      20.152  23.775  -9.048  0.00  0.00    +0.000 Ca
BRANCH  22  23
ATOM     23  O   UNK A   7      20.219  23.630 -11.324  0.00  0.00    +0.000 OA
BRANCH  23  24
ATOM     24  C   UNK A   7      19.437  23.006 -12.074  0.00  0.00    +0.000 C 
ATOM     25  O   UNK A   7      19.647  21.837 -12.463  0.00  0.00    +0.000 OA
BRANCH  24  26
ATOM     26  C   UNK A   7      18.177  23.699 -12.546  0.00  0.00    +0.000 C 
BRANCH  26  27
ATOM     27  C   UNK A   7      17.225  22.752 -13.279  0.00  0.00    +0.000 C 
BRANCH  27  28
ATOM     28  C   UNK A   7      16.439  21.901 -12.272  0.00  0.00    +0.000 C 
ATOM     29  N   SER A   2      17.069  20.844 -11.772  0.00  0.00    +0.000 N 
ATOM     30  H   SER A   2      18.037  20.641 -12.095  0.00  0.00    +0.000 HD
ATOM     31  O   UNK A   7      15.281  22.191 -11.971  0.00  0.00    +0.000 OA
BRANCH  29  32
ATOM     32  CA  SER A   2      16.456  19.952 -10.784  0.00  0.00    +0.000 C 
BRANCH  32  33
ATOM     33  C   SER A   2      17.307  19.973  -9.522  0.00  0.00    +0.000 C 
ATOM     34  N   CYS A   3      16.684  20.176  -8.363  0.00  0.00    +0.000 N 
ATOM     35  H   CYS A   3      15.652  20.303  -8.328  0.00  0.00    +0.000 HD
ATOM     36  O   SER A   2      18.528  19.803  -9.594  0.00  0.00    +0.000 OA
BRANCH  34  37
ATOM     37  CA  CYS A   3      17.478  20.215  -7.152  0.00  0.00    +0.000 C 
BRANCH  37  38
ATOM     38  C   CYS A   3      17.954  18.854  -6.670  0.00  0.00    +0.000 C 
ATOM     39  O   CYS A   3      18.619  18.755  -5.638  0.00  0.00    +0.000 OA
ENDBRANCH  37  38
BRANCH  37  40
ATOM     40  CB  CYS A   3      16.768  20.981  -6.036  0.00  0.00    +0.000 C 
ATOM     41  SG  CYS A   3      14.965  20.813  -5.941  0.00  0.00    +0.000 S 
ENDBRANCH  37  40
ENDBRANCH  34  37
ENDBRANCH  32  33
BRANCH  32  42
ATOM     42  CB  SER A   2      16.402  18.522 -11.320  0.00  0.00    +0.000 C 
BRANCH  42  43
ATOM     43  OG  SER A   2      16.050  17.603 -10.299  0.00  0.00    +0.000 OA
ATOM     44  H   SER A   2      15.159  17.839  -9.937  0.00  0.00    +0.000 HD
ENDBRANCH  42  43
ENDBRANCH  32  42
ENDBRANCH  29  32
ENDBRANCH  27  28
BRANCH  27  45
ATOM     45  N   UNK A   7      16.324  23.518 -14.122  0.00  0.00    +0.000 NA
ATOM     46  H   UNK A   1      16.280  24.553 -14.025  0.00  0.00    +0.000 HD
ENDBRANCH  27  45
ENDBRANCH  26  27
ENDBRANCH  24  26
ENDBRANCH  23  24
ENDBRANCH  22  23
ENDBRANCH  21  22
ENDBRANCH  19  21
ENDBRANCH  18  19
ENDBRANCH   6  18
ENDBRANCH   3   6
ENDBRANCH   1   2
BRANCH   1  49
ATOM     47  C   PRO A   5      25.790  25.493  -8.567  0.00  0.00    +0.000 C 
ATOM     48  O   PRO A   5      24.622  25.737  -8.310  0.00  0.00    +0.000 OA
ATOM     49  N   GLU A   6      26.396  25.935  -9.661  0.00  0.00    +0.000 N 
ATOM     50  H   GLU A   6      27.391  25.679  -9.819  0.00  0.00    +0.000 HD
BRANCH  47  57
ATOM     51  C   GLY A   4      26.089  25.962  -5.618  0.00  0.00    +0.000 C 
ATOM     52  O   GLY A   4      26.521  26.990  -6.140  0.00  0.00    +0.000 OA
ATOM     53  N   PRO A   5      26.113  24.786  -6.252  0.00  0.00    +0.000 N 
ATOM     54  CD  PRO A   5      25.714  23.489  -5.688  0.00  0.00    +0.000 C 
ATOM     55  CG  PRO A   5      26.468  22.528  -6.538  0.00  0.00    +0.000 C 
ATOM     56  CB  PRO A   5      26.423  23.145  -7.899  0.00  0.00    +0.000 C 
ATOM     57  CA  PRO A   5      26.622  24.633  -7.618  0.00  0.00    +0.000 C 
BRANCH  51  58
ATOM     58  CA  GLY A   4      25.538  26.003  -4.216  0.00  0.00    +0.000 C 
BRANCH  58  61
ATOM     59  C   CYS A   3      24.702  27.641  -2.658  0.00  0.00    +0.000 C 
ATOM     60  O   CYS A   3      24.150  26.780  -1.976  0.00  0.00    +0.000 OA
ATOM     61  N   GLY A   4      25.382  27.370  -3.764  0.00  0.00    +0.000 N 
ATOM     62  H   GLY A   4      25.807  28.146  -4.311  0.00  0.00    +0.000 HD
BRANCH  59  63
ATOM     63  CA  CYS A   3      24.613  29.099  -2.262  0.00  0.00    +0.000 C 
BRANCH  63  65
ATOM     64  C   SER A   2      23.115  30.360  -0.804  0.00  0.00    +0.000 C 
ATOM     65  N   CYS A   3      23.680  29.209  -1.146  0.00  0.00    +0.000 N 
ATOM     66  H   CYS A   3      23.449  28.355  -0.599  0.00  0.00    +0.000 HD
ATOM     67  O   SER A   2      23.332  31.416  -1.404  0.00  0.00    +0.000 OA
BRANCH  64  68
ATOM     68  CA  SER A   2      22.176  30.309   0.404  0.00  0.00    +0.000 C 
BRANCH  68  70
ATOM     69  C   UNK A   1      22.780  28.600   2.031  0.00  0.00    +0.000 C 
ATOM     70  N   SER A   2      22.915  29.837   1.560  0.00  0.00    +0.000 N 
ATOM     71  H   SER A   2      23.572  30.487   2.036  0.00  0.00    +0.000 HD
ATOM     72  O   UNK A   1      22.025  27.765   1.533  0.00  0.00    +0.000 OA
BRANCH  69  73
ATOM     73  C   UNK A   1      23.642  28.242   3.229  0.00  0.00    +0.000 C 
ATOM     74  C   UNK A   1      24.401  26.950   2.940  0.00  0.00    +0.000 C 
BRANCH  73  75
ATOM     75  N   UNK A   1      22.896  28.103   4.467  0.00  0.00    +0.000 NA
ATOM     76  H   UNK A   1      22.088  27.449   4.509  0.00  0.00    +0.000 HD
ENDBRANCH  73  75
ENDBRANCH  69  73
ENDBRANCH  68  70
BRANCH  68  77
ATOM     77  CB  SER A   2      21.601  31.698   0.686  0.00  0.00    +0.000 C 
BRANCH  77  78
ATOM     78  OG  SER A   2      20.652  31.625   1.737  0.00  0.00    +0.000 OA
ATOM     79  H   SER A   2      21.092  31.282   2.555  0.00  0.00    +0.000 HD
ENDBRANCH  77  78
ENDBRANCH  68  77
ENDBRANCH  64  68
ENDBRANCH  63  65
BRANCH  63  80
ATOM     80  CB  CYS A   3      26.018  29.610  -1.879  0.00  0.00    +0.000 C 
BRANCH  80  81
ATOM     81  CG  CYS A   3      26.579  29.059  -0.580  0.00  0.00    +0.000 A 
ATOM     82  CD1 CYS A   3      26.433  29.597   0.660  0.00  0.00    +0.000 A 
ATOM     83  NE1 CYS A   3      27.041  28.799   1.607  0.00  0.00    +0.000 N 
ATOM     84  HE1 CYS A   3      27.074  28.990   2.629  0.00  0.00    +0.000 HD
ATOM     85  CE2 CYS A   3      27.594  27.713   0.981  0.00  0.00    +0.000 A 
ATOM     86  CZ2 CYS A   3      28.300  26.636   1.510  0.00  0.00    +0.000 A 
ATOM     87  CH2 CYS A   3      28.745  25.678   0.633  0.00  0.00    +0.000 A 
ATOM     88  CZ3 CYS A   3      28.500  25.778  -0.751  0.00  0.00    +0.000 A 
ATOM     89  CE3 CYS A   3      27.794  26.852  -1.277  0.00  0.00    +0.000 A 
ATOM     90  CD2 CYS A   3      27.326  27.842  -0.403  0.00  0.00    +0.000 A 
ENDBRANCH  80  81
ENDBRANCH  63  80
ENDBRANCH  59  63
ENDBRANCH  58  61
ENDBRANCH  51  58
ENDBRANCH  47  57
ENDBRANCH   1  49
BRANCH   1  91
ATOM     91  CB  GLU A   6      26.670  26.980 -11.821  0.00  0.00    +0.000 C 
BRANCH  91  92
ATOM     92  CG  GLU A   6      26.189  27.935 -12.891  0.00  0.00    +0.000 C 
BRANCH  92  93
ATOM     93  CD  GLU A   6      27.260  28.170 -13.957  0.00  0.00    +0.000 C 
ATOM     94  OE2 GLU A   6      28.401  27.673 -13.774  0.00  0.00    +0.000 OA
ATOM     95  OE1 GLU A   6      26.964  28.850 -14.967  0.00  0.00    +0.000 OA
ENDBRANCH  92  93
ENDBRANCH  91  92
ENDBRANCH   1  91
TORSDOF 41
REMARK  Name = ../refined-set-2016/4omc/4omc_pocket.pdb
REMARK  257 active torsions:
REMARK  status: ('A' for Active; 'I' for Inactive)
REMARK    1  A    between atoms: _1  and  _3
REMARK    2  A    between atoms: _3  and  _4
REMARK    3  A    between atoms: _3  and  _6
REMARK    4  A    between atoms: _6  and  _7
REMARK    5  A    between atoms: _10  and  _12
REMARK    6  A    between atoms: _12  and  _13
REMARK    7  A    between atoms: _12  and  _15
REMARK    8  A    between atoms: _15  and  _16
REMARK    9  A    between atoms: _19  and  _21
REMARK   10  A    between atoms: _21  and  _22
REMARK   11  A    between atoms: _24  and  _26
REMARK   12  A    between atoms: _26  and  _27
REMARK   13  A    between atoms: _26  and  _29
REMARK   14  A    between atoms: _29  and  _30
REMARK   15  A    between atoms: _35  and  _37
REMARK   16  A    between atoms: _37  and  _38
REMARK   17  A    between atoms: _37  and  _40
REMARK   18  A    between atoms: _40  and  _41
REMARK   19  A    between atoms: _41  and  _42
REMARK   20  A    between atoms: _42  and  _43
REMARK   21  A    between atoms: _52  and  _54
REMARK   22  A    between atoms: _54  and  _55
REMARK   23  A    between atoms: _54  and  _57
REMARK   24  A    between atoms: _57  and  _58
REMARK   25  A    between atoms: _61  and  _63
REMARK   26  A    between atoms: _63  and  _64
REMARK   27  A    between atoms: _63  and  _66
REMARK   28  A    between atoms: _66  and  _67
REMARK   29  A    between atoms: _72  and  _74
REMARK   30  A    between atoms: _74  and  _75
REMARK   31  A    between atoms: _74  and  _77
REMARK   32  A    between atoms: _77  and  _78
REMARK   33  A    between atoms: _81  and  _83
REMARK   34  A    between atoms: _83  and  _84
REMARK   35  A    between atoms: _83  and  _86
REMARK   36  A    between atoms: _86  and  _87
REMARK   37  A    between atoms: _92  and  _94
REMARK   38  A    between atoms: _94  and  _95
REMARK   39  A    between atoms: _94  and  _97
REMARK   40  A    between atoms: _97  and  _98
REMARK   41  A    between atoms: _98  and  _99
REMARK   42  A    between atoms: _99  and  _100
REMARK   43  A    between atoms: _109  and  _111
REMARK   44  A    between atoms: _111  and  _112
REMARK   45  A    between atoms: _111  and  _114
REMARK   46  A    between atoms: _114  and  _115
REMARK   47  A    between atoms: _120  and  _122
REMARK   48  A    between atoms: _122  and  _123
REMARK   49  A    between atoms: _125  and  _127
REMARK   50  A    between atoms: _127  and  _128
REMARK   51  A    between atoms: _127  and  _130
REMARK   52  A    between atoms: _130  and  _131
REMARK   53  A    between atoms: _134  and  _136
REMARK   54  A    between atoms: _136  and  _137
REMARK   55  A    between atoms: _136  and  _139
REMARK   56  A    between atoms: _141  and  _143
REMARK   57  A    between atoms: _143  and  _144
REMARK   58  A    between atoms: _143  and  _146
REMARK   59  A    between atoms: _146  and  _147
REMARK   60  A    between atoms: _147  and  _148
REMARK   61  A    between atoms: _148  and  _149
REMARK   62  A    between atoms: _158  and  _160
REMARK   63  A    between atoms: _160  and  _161
REMARK   64  A    between atoms: _160  and  _163
REMARK   65  A    between atoms: _163  and  _164
REMARK   66  A    between atoms: _164  and  _165
REMARK   67  A    between atoms: _167  and  _169
REMARK   68  A    between atoms: _169  and  _170
REMARK   69  A    between atoms: _169  and  _172
REMARK   70  A    between atoms: _172  and  _173
REMARK   71  A    between atoms: _176  and  _178
REMARK   72  A    between atoms: _178  and  _179
REMARK   73  A    between atoms: _178  and  _181
REMARK   74  A    between atoms: _181  and  _182
REMARK   75  A    between atoms: _185  and  _187
REMARK   76  A    between atoms: _187  and  _188
REMARK   77  A    between atoms: _190  and  _192
REMARK   78  A    between atoms: _192  and  _193
REMARK   79  A    between atoms: _192  and  _195
REMARK   80  A    between atoms: _195  and  _196
REMARK   81  A    between atoms: _196  and  _197
REMARK   82  A    between atoms: _200  and  _202
REMARK   83  A    between atoms: _202  and  _203
REMARK   84  A    between atoms: _202  and  _205
REMARK   85  A    between atoms: _208  and  _210
REMARK   86  A    between atoms: _210  and  _211
REMARK   87  A    between atoms: _210  and  _213
REMARK   88  A    between atoms: _213  and  _214
REMARK   89  A    between atoms: _217  and  _219
REMARK   90  A    between atoms: _219  and  _220
REMARK   91  A    between atoms: _219  and  _222
REMARK   92  A    between atoms: _222  and  _223
REMARK   93  A    between atoms: _226  and  _228
REMARK   94  A    between atoms: _228  and  _229
REMARK   95  A    between atoms: _232  and  _234
REMARK   96  A    between atoms: _234  and  _235
REMARK   97  A    between atoms: _234  and  _237
REMARK   98  A    between atoms: _240  and  _242
REMARK   99  A    between atoms: _242  and  _243
REMARK  100  A    between atoms: _242  and  _245
REMARK  101  A    between atoms: _245  and  _246
REMARK  102  A    between atoms: _246  and  _247
REMARK  103  A    between atoms: _250  and  _252
REMARK  104  A    between atoms: _252  and  _253
REMARK  105  A    between atoms: _256  and  _258
REMARK  106  A    between atoms: _258  and  _259
REMARK  107  A    between atoms: _262  and  _264
REMARK  108  A    between atoms: _264  and  _265
REMARK  109  A    between atoms: _264  and  _267
REMARK  110  A    between atoms: _267  and  _268
REMARK  111  A    between atoms: _270  and  _272
REMARK  112  A    between atoms: _272  and  _273
REMARK  113  A    between atoms: _272  and  _275
REMARK  114  A    between atoms: _275  and  _276
REMARK  115  A    between atoms: _286  and  _288
REMARK  116  A    between atoms: _288  and  _289
REMARK  117  A    between atoms: _292  and  _293
REMARK  118  A    between atoms: _298  and  _300
REMARK  119  A    between atoms: _300  and  _301
REMARK  120  A    between atoms: _300  and  _303
REMARK  121  A    between atoms: _303  and  _304
REMARK  122  A    between atoms: _304  and  _305
REMARK  123  A    between atoms: _308  and  _310
REMARK  124  A    between atoms: _310  and  _311
REMARK  125  A    between atoms: _310  and  _313
REMARK  126  A    between atoms: _313  and  _314
REMARK  127  A    between atoms: _314  and  _315
REMARK  128  A    between atoms: _315  and  CA_629
REMARK  129  A    between atoms: _317  and  _319
REMARK  130  A    between atoms: _319  and  _320
REMARK  131  A    between atoms: _319  and  _322
REMARK  132  A    between atoms: _322  and  _323
REMARK  133  A    between atoms: _326  and  _328
REMARK  134  A    between atoms: _328  and  _329
REMARK  135  A    between atoms: _328  and  _331
REMARK  136  A    between atoms: _331  and  _332
REMARK  137  A    between atoms: _335  and  _337
REMARK  138  A    between atoms: _337  and  _338
REMARK  139  A    between atoms: _337  and  _340
REMARK  140  A    between atoms: _343  and  _345
REMARK  141  A    between atoms: _345  and  _346
REMARK  142  A    between atoms: _345  and  _348
REMARK  143  A    between atoms: _348  and  _349
REMARK  144  A    between atoms: _352  and  _354
REMARK  145  A    between atoms: _354  and  _355
REMARK  146  A    between atoms: _358  and  _359
REMARK  147  A    between atoms: _364  and  _366
REMARK  148  A    between atoms: _366  and  _367
REMARK  149  A    between atoms: _370  and  _372
REMARK  150  A    between atoms: _372  and  _373
REMARK  151  A    between atoms: _372  and  _375
REMARK  152  A    between atoms: _375  and  _376
REMARK  153  A    between atoms: _376  and  _377
REMARK  154  A    between atoms: _377  and  _378
REMARK  155  A    between atoms: _387  and  _389
REMARK  156  A    between atoms: _389  and  _390
REMARK  157  A    between atoms: _389  and  _392
REMARK  158  A    between atoms: _392  and  _393
REMARK  159  A    between atoms: _396  and  _398
REMARK  160  A    between atoms: _398  and  _399
REMARK  161  A    between atoms: _402  and  _404
REMARK  162  A    between atoms: _404  and  _405
REMARK  163  A    between atoms: _404  and  _407
REMARK  164  A    between atoms: _407  and  _408
REMARK  165  A    between atoms: _408  and  _409
REMARK  166  A    between atoms: _412  and  _414
REMARK  167  A    between atoms: _414  and  _415
REMARK  168  A    between atoms: _414  and  _417
REMARK  169  A    between atoms: _417  and  _418
REMARK  170  A    between atoms: _428  and  _430
REMARK  171  A    between atoms: _430  and  _431
REMARK  172  A    between atoms: _434  and  _436
REMARK  173  A    between atoms: _436  and  _437
REMARK  174  A    between atoms: _436  and  _439
REMARK  175  A    between atoms: _439  and  _440
REMARK  176  A    between atoms: _442  and  _444
REMARK  177  A    between atoms: _444  and  _445
REMARK  178  A    between atoms: _447  and  _449
REMARK  179  A    between atoms: _449  and  _450
REMARK  180  A    between atoms: _449  and  _452
REMARK  181  A    between atoms: _452  and  _453
REMARK  182  A    between atoms: _458  and  _460
REMARK  183  A    between atoms: _460  and  _461
REMARK  184  A    between atoms: _463  and  _465
REMARK  185  A    between atoms: _465  and  _466
REMARK  186  A    between atoms: _465  and  _468
REMARK  187  A    between atoms: _468  and  _469
REMARK  188  A    between atoms: _469  and  _471
REMARK  189  A    between atoms: _471  and  CA_629
REMARK  190  A    between atoms: _472  and  _474
REMARK  191  A    between atoms: _474  and  _475
REMARK  192  A    between atoms: _474  and  _477
REMARK  193  A    between atoms: _477  and  _478
REMARK  194  A    between atoms: _480  and  _482
REMARK  195  A    between atoms: _482  and  _483
REMARK  196  A    between atoms: _482  and  _485
REMARK  197  A    between atoms: _487  and  _489
REMARK  198  A    between atoms: _489  and  _490
REMARK  199  A    between atoms: _489  and  _492
REMARK  200  A    between atoms: _494  and  _496
REMARK  201  A    between atoms: _496  and  _497
REMARK  202  A    between atoms: _496  and  _499
REMARK  203  A    between atoms: _499  and  _500
REMARK  204  A    between atoms: _503  and  _505
REMARK  205  A    between atoms: _505  and  _506
REMARK  206  A    between atoms: _508  and  _510
REMARK  207  A    between atoms: _510  and  _511
REMARK  208  A    between atoms: _510  and  _513
REMARK  209  A    between atoms: _513  and  _514
REMARK  210  A    between atoms: _519  and  _520
REMARK  211  A    between atoms: _522  and  _524
REMARK  212  A    between atoms: _524  and  _525
REMARK  213  A    between atoms: _524  and  _527
REMARK  214  A    between atoms: _527  and  _528
REMARK  215  A    between atoms: _531  and  _533
REMARK  216  A    between atoms: _533  and  _534
REMARK  217  A    between atoms: _533  and  _536
REMARK  218  A    between atoms: _536  and  _537
REMARK  219  A    between atoms: _542  and  _544
REMARK  220  A    between atoms: _544  and  _545
REMARK  221  A    between atoms: _544  and  _547
REMARK  222  A    between atoms: _547  and  _548
REMARK  223  A    between atoms: _551  and  _553
REMARK  224  A    between atoms: _553  and  _554
REMARK  225  A    between atoms: _553  and  _556
REMARK  226  A    between atoms: _556  and  _557
REMARK  227  A    between atoms: _559  and  _561
REMARK  228  A    between atoms: _561  and  _562
REMARK  229  A    between atoms: _561  and  _564
REMARK  230  A    between atoms: _564  and  _565
REMARK  231  A    between atoms: _568  and  _570
REMARK  232  A    between atoms: _570  and  _571
REMARK  233  A    between atoms: _570  and  _573
REMARK  234  A    between atoms: _573  and  _574
REMARK  235  A    between atoms: _574  and  _575
REMARK  236  A    between atoms: _578  and  _580
REMARK  237  A    between atoms: _580  and  _581
REMARK  238  A    between atoms: _580  and  _583
REMARK  239  A    between atoms: _583  and  _584
REMARK  240  A    between atoms: _587  and  _589
REMARK  241  A    between atoms: _589  and  _590
REMARK  242  A    between atoms: _592  and  _594
REMARK  243  A    between atoms: _594  and  _595
REMARK  244  A    between atoms: _594  and  _597
REMARK  245  A    between atoms: _597  and  _598
REMARK  246  A    between atoms: _601  and  _603
REMARK  247  A    between atoms: _603  and  _604
REMARK  248  A    between atoms: _603  and  _606
REMARK  249  A    between atoms: _606  and  _607
REMARK  250  A    between atoms: _609  and  _611
REMARK  251  A    between atoms: _611  and  _612
REMARK  252  A    between atoms: _615  and  _617
REMARK  253  A    between atoms: _617  and  _618
REMARK  254  A    between atoms: _617  and  _620
REMARK  255  A    between atoms: _620  and  _621
REMARK  256  A    between atoms: _623  and  _625
REMARK  257  A    between atoms: _625  and  _626
REMARK                            x       y       z     vdW  Elec       q    Type
REMARK                         _______ _______ _______ _____ _____    ______ ____
ROOT
ATOM      1  C   ALA A   6      33.848  16.206  -0.974  0.00  0.00    +0.241 C 
ATOM      2  O   ALA A   6      33.101  16.480  -0.025  0.00  0.00    -0.273 OA
ATOM      3  N   ARG A   7      34.864  15.366  -0.854  0.00  0.00    -0.297 N 
ATOM      4  H   ARG A   7      35.508  15.228  -1.659  0.00  0.00    +0.150 HD
ENDROOT
BRANCH   1   5
ATOM      5  CA  ALA A   6      33.623  16.856  -2.354  0.00  0.00    +0.149 C 
ATOM      6  CB  ALA A   6      34.831  17.658  -2.792  0.00  0.00    +0.031 C 
BRANCH   5   8
ATOM      7  C   PRO A   5      31.232  17.274  -2.205  0.00  0.00    +0.241 C 
ATOM      8  N   ALA A   6      32.478  17.734  -2.162  0.00  0.00    -0.297 N 
ATOM      9  H   ALA A   6      32.639  18.746  -1.987  0.00  0.00    +0.150 HD
ATOM     10  O   PRO A   5      30.950  16.103  -2.471  0.00  0.00    -0.273 OA
BRANCH   7  13
ATOM     11  C   GLY A   4      29.024  18.340  -4.097  0.00  0.00    +0.246 C 
ATOM     12  N   PRO A   5      28.950  18.156  -2.770  0.00  0.00    -0.272 N 
ATOM     13  CA  PRO A   5      30.134  18.294  -1.920  0.00  0.00    +0.152 C 
ATOM     14  CB  PRO A   5      29.561  18.133  -0.512  0.00  0.00    +0.031 C 
ATOM     15  CG  PRO A   5      28.463  17.147  -0.733  0.00  0.00    +0.024 C 
ATOM     16  CD  PRO A   5      27.791  17.720  -1.970  0.00  0.00    +0.094 C 
ATOM     17  O   GLY A   4      30.086  18.616  -4.656  0.00  0.00    -0.273 OA
BRANCH  11  18
ATOM     18  CA  GLY A   4      27.756  18.185  -4.913  0.00  0.00    +0.176 C 
BRANCH  18  20
ATOM     19  C   ASP A   3      27.077  18.383  -7.219  0.00  0.00    +0.241 C 
ATOM     20  N   GLY A   4      28.050  18.282  -6.325  0.00  0.00    -0.295 N 
ATOM     21  H   GLY A   4      29.040  18.272  -6.644  0.00  0.00    +0.150 HD
ATOM     22  O   ASP A   3      25.884  18.411  -6.913  0.00  0.00    -0.273 OA
BRANCH  19  23
ATOM     23  CA  ASP A   3      27.522  18.460  -8.676  0.00  0.00    +0.160 C 
BRANCH  23  25
ATOM     24  C   VAL A   2      26.615  17.562 -10.727  0.00  0.00    +0.241 C 
ATOM     25  N   ASP A   3      26.403  18.152  -9.557  0.00  0.00    -0.297 N 
ATOM     26  H   ASP A   3      25.434  18.395  -9.268  0.00  0.00    +0.150 HD
ATOM     27  O   VAL A   2      27.738  17.225 -11.112  0.00  0.00    -0.273 OA
BRANCH  24  28
ATOM     28  CA  VAL A   2      25.398  17.340 -11.608  0.00  0.00    +0.148 C 
BRANCH  28  31
ATOM     29  C   THR A   1      24.897  19.131 -13.192  0.00  0.00    +0.241 C 
ATOM     30  O   THR A   1      23.776  19.341 -12.725  0.00  0.00    -0.274 OA
ATOM     31  N   VAL A   2      25.710  18.180 -12.752  0.00  0.00    -0.297 N 
ATOM     32  H   VAL A   2      26.611  18.029 -13.248  0.00  0.00    +0.150 HD
BRANCH  29  33
ATOM     33  CA  THR A   1      25.439  19.949 -14.362  0.00  0.00    +0.172 C 
BRANCH  33  34
ATOM     34  CB  THR A   1      26.445  21.000 -13.823  0.00  0.00    +0.135 C 
ATOM     35  CG2 THR A   1      26.075  22.350 -14.288  0.00  0.00    +0.034 C 
BRANCH  34  36
ATOM     36  OG1 THR A   1      26.409  21.031 -12.395  0.00  0.00    -0.383 OA
ATOM     37  HG1 THR A   1      27.055  21.705 -12.064  0.00  0.00    +0.210 HD
ENDBRANCH  34  36
ENDBRANCH  33  34
BRANCH  33  38
ATOM     38  N   THR A   1      24.404  20.579 -15.155  0.00  0.00    -0.236 NA
ATOM     39  H   THR A   1      23.885  21.402 -14.788  0.00  0.00    +0.142 HD
ENDBRANCH  33  38
ENDBRANCH  29  33
ENDBRANCH  28  31
BRANCH  28  40
ATOM     40  CB  VAL A   2      25.303  15.867 -11.994  0.00  0.00    +0.027 C 
ATOM     41  CG2 VAL A   2      25.073  15.029 -10.758  0.00  0.00    +0.002 C 
ATOM     42  CG1 VAL A   2      24.174  15.676 -13.002  0.00  0.00    +0.002 C 
ENDBRANCH  28  40
ENDBRANCH  24  28
ENDBRANCH  23  25
BRANCH  23  43
ATOM     43  CB  ASP A   3      28.040  19.868  -9.029  0.00  0.00    +0.143 C 
BRANCH  43  44
ATOM     44  CG  ASP A   3      29.435  20.163  -8.482  0.00  0.00    +0.367 C 
ATOM     45  OD2 ASP A   3      30.014  19.331  -7.755  0.00  0.00    -0.246 OA
ATOM     46  OD1 ASP A   3      29.957  21.257  -8.788  0.00  0.00    -0.246 OA
ENDBRANCH  43  44
ENDBRANCH  23  43
ENDBRANCH  19  23
ENDBRANCH  18  20
ENDBRANCH  11  18
ENDBRANCH   7  13
ENDBRANCH   5   8
ENDBRANCH   1   5
BRANCH   3  47
ATOM     47  CA  ARG A   7      35.100  14.629   0.385  0.00  0.00    +0.149 C 
BRANCH  47  48
ATOM     48  C   ARG A   7      35.166  15.343   1.720  0.00  0.00    +0.241 C 
ATOM     49  O   ARG A   7      34.503  14.920   2.674  0.00  0.00    -0.273 OA
ATOM     50  N   LEU A   8      35.946  16.413   1.810  0.00  0.00    -0.297 N 
ATOM     51  H   LEU A   8      36.474  16.747   0.979  0.00  0.00    +0.150 HD
BRANCH  50  52
ATOM     52  CA  LEU A   8      36.058  17.116   3.079  0.00  0.00    +0.149 C 
BRANCH  52  53
ATOM     53  C   LEU A   8      34.716  17.682   3.501  0.00  0.00    +0.241 C 
ATOM     54  O   LEU A   8      34.333  17.590   4.678  0.00  0.00    -0.273 OA
ATOM     55  N   ALA A   9      33.993  18.254   2.544  0.00  0.00    -0.297 N 
ATOM     56  H   ALA A   9      34.365  18.299   1.574  0.00  0.00    +0.150 HD
BRANCH  55  57
ATOM     57  CA  ALA A   9      32.680  18.821   2.844  0.00  0.00    +0.149 C 
ATOM     58  CB  ALA A   9      32.103  19.523   1.617  0.00  0.00    +0.031 C 
BRANCH  57  59
ATOM     59  C   ALA A   9      31.741  17.710   3.307  0.00  0.00    +0.241 C 
ATOM     60  O   ALA A   9      30.988  17.889   4.260  0.00  0.00    -0.273 OA
ATOM     61  N   GLU A  10      31.789  16.560   2.642  0.00  0.00    -0.298 N 
ATOM     62  H   GLU A  10      32.433  16.449   1.833  0.00  0.00    +0.150 HD
BRANCH  61  63
ATOM     63  CA  GLU A  10      30.933  15.458   3.055  0.00  0.00    +0.137 C 
BRANCH  63  64
ATOM     64  C   GLU A  10      31.282  15.087   4.479  0.00  0.00    +0.227 C 
ATOM     65  O   GLU A  10      30.396  14.894   5.313  0.00  0.00    -0.286 OA
ENDBRANCH  63  64
BRANCH  63  66
ATOM     66  CB  GLU A  10      31.149  14.217   2.204  0.00  0.00    +0.039 C 
BRANCH  66  67
ATOM     67  CG  GLU A  10      30.703  14.298   0.794  0.00  0.00    +0.116 C 
BRANCH  67  68
ATOM     68  CD  GLU A  10      30.710  12.922   0.172  0.00  0.00    +0.365 C 
ATOM     69  OE2 GLU A  10      29.865  12.102   0.584  0.00  0.00    -0.246 OA
ATOM     70  OE1 GLU A  10      31.563  12.655  -0.706  0.00  0.00    -0.246 OA
ENDBRANCH  67  68
ENDBRANCH  66  67
ENDBRANCH  63  66
ENDBRANCH  61  63
ENDBRANCH  57  59
ENDBRANCH  55  57
ENDBRANCH  52  53
BRANCH  52  71
ATOM     71  CB  LEU A   8      37.107  18.230   2.997  0.00  0.00    +0.029 C 
BRANCH  71  72
ATOM     72  CG  LEU A   8      38.571  17.805   2.842  0.00  0.00    +0.002 C 
ATOM     73  CD2 LEU A   8      39.022  17.013   4.064  0.00  0.00    +0.000 C 
ATOM     74  CD1 LEU A   8      39.436  19.031   2.671  0.00  0.00    +0.000 C 
ENDBRANCH  71  72
ENDBRANCH  52  71
ENDBRANCH  50  52
ENDBRANCH  47  48
BRANCH  47  75
ATOM     75  CB  ARG A   7      36.326  13.735   0.218  0.00  0.00    +0.033 C 
BRANCH  75  76
ATOM     76  CG  ARG A   7      36.052  12.618  -0.788  0.00  0.00    +0.045 C 
BRANCH  76  77
ATOM     77  CD  ARG A   7      37.320  11.881  -1.217  0.00  0.00    +0.174 C 
BRANCH  77  78
ATOM     78  NE  ARG A   7      37.091  10.991  -2.361  0.00  0.00    -0.265 N 
ATOM     79  CZ  ARG A   7      36.331   9.894  -2.336  0.00  0.00    +0.342 C 
ATOM     80  NH2 ARG A   7      35.708   9.528  -1.222  0.00  0.00    -0.292 N 
ATOM     81 HH21 ARG A   7      35.810  10.098  -0.358  0.00  0.00    +0.255 HD
ATOM     82 HH22 ARG A   7      35.118   8.671  -1.213  0.00  0.00    +0.255 HD
ATOM     83  NH1 ARG A   7      36.202   9.158  -3.432  0.00  0.00    -0.292 N 
ATOM     84 HH11 ARG A   7      35.611   8.302  -3.417  0.00  0.00    +0.255 HD
ATOM     85 HH12 ARG A   7      36.692   9.437  -4.306  0.00  0.00    +0.255 HD
ATOM     86  HE  ARG A   7      37.556  11.233  -3.259  0.00  0.00    +0.259 HD
ENDBRANCH  77  78
ENDBRANCH  76  77
ENDBRANCH  75  76
ENDBRANCH  47  75
ENDBRANCH   3  47
TORSDOF 33
REMARK  Name = ../refined-set-2016/4omc/4omc_pocket.pdb
REMARK  257 active torsions:
REMARK  status: ('A' for Active; 'I' for Inactive)
REMARK    1  A    between atoms: _1  and  _3
REMARK    2  A    between atoms: _3  and  _4
REMARK    3  A    between atoms: _3  and  _6
REMARK    4  A    between atoms: _6  and  _7
REMARK    5  A    between atoms: _10  and  _12
REMARK    6  A    between atoms: _12  and  _13
REMARK    7  A    between atoms: _12  and  _15
REMARK    8  A    between atoms: _15  and  _16
REMARK    9  A    between atoms: _19  and  _21
REMARK   10  A    between atoms: _21  and  _22
REMARK   11  A    between atoms: _24  and  _26
REMARK   12  A    between atoms: _26  and  _27
REMARK   13  A    between atoms: _26  and  _29
REMARK   14  A    between atoms: _29  and  _30
REMARK   15  A    between atoms: _35  and  _37
REMARK   16  A    between atoms: _37  and  _38
REMARK   17  A    between atoms: _37  and  _40
REMARK   18  A    between atoms: _40  and  _41
REMARK   19  A    between atoms: _41  and  _42
REMARK   20  A    between atoms: _42  and  _43
REMARK   21  A    between atoms: _52  and  _54
REMARK   22  A    between atoms: _54  and  _55
REMARK   23  A    between atoms: _54  and  _57
REMARK   24  A    between atoms: _57  and  _58
REMARK   25  A    between atoms: _61  and  _63
REMARK   26  A    between atoms: _63  and  _64
REMARK   27  A    between atoms: _63  and  _66
REMARK   28  A    between atoms: _66  and  _67
REMARK   29  A    between atoms: _72  and  _74
REMARK   30  A    between atoms: _74  and  _75
REMARK   31  A    between atoms: _74  and  _77
REMARK   32  A    between atoms: _77  and  _78
REMARK   33  A    between atoms: _81  and  _83
REMARK   34  A    between atoms: _83  and  _84
REMARK   35  A    between atoms: _83  and  _86
REMARK   36  A    between atoms: _86  and  _87
REMARK   37  A    between atoms: _92  and  _94
REMARK   38  A    between atoms: _94  and  _95
REMARK   39  A    between atoms: _94  and  _97
REMARK   40  A    between atoms: _97  and  _98
REMARK   41  A    between atoms: _98  and  _99
REMARK   42  A    between atoms: _99  and  _100
REMARK   43  A    between atoms: _109  and  _111
REMARK   44  A    between atoms: _111  and  _112
REMARK   45  A    between atoms: _111  and  _114
REMARK   46  A    between atoms: _114  and  _115
REMARK   47  A    between atoms: _120  and  _122
REMARK   48  A    between atoms: _122  and  _123
REMARK   49  A    between atoms: _125  and  _127
REMARK   50  A    between atoms: _127  and  _128
REMARK   51  A    between atoms: _127  and  _130
REMARK   52  A    between atoms: _130  and  _131
REMARK   53  A    between atoms: _134  and  _136
REMARK   54  A    between atoms: _136  and  _137
REMARK   55  A    between atoms: _136  and  _139
REMARK   56  A    between atoms: _141  and  _143
REMARK   57  A    between atoms: _143  and  _144
REMARK   58  A    between atoms: _143  and  _146
REMARK   59  A    between atoms: _146  and  _147
REMARK   60  A    between atoms: _147  and  _148
REMARK   61  A    between atoms: _148  and  _149
REMARK   62  A    between atoms: _158  and  _160
REMARK   63  A    between atoms: _160  and  _161
REMARK   64  A    between atoms: _160  and  _163
REMARK   65  A    between atoms: _163  and  _164
REMARK   66  A    between atoms: _164  and  _165
REMARK   67  A    between atoms: _167  and  _169
REMARK   68  A    between atoms: _169  and  _170
REMARK   69  A    between atoms: _169  and  _172
REMARK   70  A    between atoms: _172  and  _173
REMARK   71  A    between atoms: _176  and  _178
REMARK   72  A    between atoms: _178  and  _179
REMARK   73  A    between atoms: _178  and  _181
REMARK   74  A    between atoms: _181  and  _182
REMARK   75  A    between atoms: _185  and  _187
REMARK   76  A    between atoms: _187  and  _188
REMARK   77  A    between atoms: _190  and  _192
REMARK   78  A    between atoms: _192  and  _193
REMARK   79  A    between atoms: _192  and  _195
REMARK   80  A    between atoms: _195  and  _196
REMARK   81  A    between atoms: _196  and  _197
REMARK   82  A    between atoms: _200  and  _202
REMARK   83  A    between atoms: _202  and  _203
REMARK   84  A    between atoms: _202  and  _205
REMARK   85  A    between atoms: _208  and  _210
REMARK   86  A    between atoms: _210  and  _211
REMARK   87  A    between atoms: _210  and  _213
REMARK   88  A    between atoms: _213  and  _214
REMARK   89  A    between atoms: _217  and  _219
REMARK   90  A    between atoms: _219  and  _220
REMARK   91  A    between atoms: _219  and  _222
REMARK   92  A    between atoms: _222  and  _223
REMARK   93  A    between atoms: _226  and  _228
REMARK   94  A    between atoms: _228  and  _229
REMARK   95  A    between atoms: _232  and  _234
REMARK   96  A    between atoms: _234  and  _235
REMARK   97  A    between atoms: _234  and  _237
REMARK   98  A    between atoms: _240  and  _242
REMARK   99  A    between atoms: _242  and  _243
REMARK  100  A    between atoms: _242  and  _245
REMARK  101  A    between atoms: _245  and  _246
REMARK  102  A    between atoms: _246  and  _247
REMARK  103  A    between atoms: _250  and  _252
REMARK  104  A    between atoms: _252  and  _253
REMARK  105  A    between atoms: _256  and  _258
REMARK  106  A    between atoms: _258  and  _259
REMARK  107  A    between atoms: _262  and  _264
REMARK  108  A    between atoms: _264  and  _265
REMARK  109  A    between atoms: _264  and  _267
REMARK  110  A    between atoms: _267  and  _268
REMARK  111  A    between atoms: _270  and  _272
REMARK  112  A    between atoms: _272  and  _273
REMARK  113  A    between atoms: _272  and  _275
REMARK  114  A    between atoms: _275  and  _276
REMARK  115  A    between atoms: _286  and  _288
REMARK  116  A    between atoms: _288  and  _289
REMARK  117  A    between atoms: _292  and  _293
REMARK  118  A    between atoms: _298  and  _300
REMARK  119  A    between atoms: _300  and  _301
REMARK  120  A    between atoms: _300  and  _303
REMARK  121  A    between atoms: _303  and  _304
REMARK  122  A    between atoms: _304  and  _305
REMARK  123  A    between atoms: _308  and  _310
REMARK  124  A    between atoms: _310  and  _311
REMARK  125  A    between atoms: _310  and  _313
REMARK  126  A    between atoms: _313  and  _314
REMARK  127  A    between atoms: _314  and  _315
REMARK  128  A    between atoms: _315  and  CA_629
REMARK  129  A    between atoms: _317  and  _319
REMARK  130  A    between atoms: _319  and  _320
REMARK  131  A    between atoms: _319  and  _322
REMARK  132  A    between atoms: _322  and  _323
REMARK  133  A    between atoms: _326  and  _328
REMARK  134  A    between atoms: _328  and  _329
REMARK  135  A    between atoms: _328  and  _331
REMARK  136  A    between atoms: _331  and  _332
REMARK  137  A    between atoms: _335  and  _337
REMARK  138  A    between atoms: _337  and  _338
REMARK  139  A    between atoms: _337  and  _340
REMARK  140  A    between atoms: _343  and  _345
REMARK  141  A    between atoms: _345  and  _346
REMARK  142  A    between atoms: _345  and  _348
REMARK  143  A    between atoms: _348  and  _349
REMARK  144  A    between atoms: _352  and  _354
REMARK  145  A    between atoms: _354  and  _355
REMARK  146  A    between atoms: _358  and  _359
REMARK  147  A    between atoms: _364  and  _366
REMARK  148  A    between atoms: _366  and  _367
REMARK  149  A    between atoms: _370  and  _372
REMARK  150  A    between atoms: _372  and  _373
REMARK  151  A    between atoms: _372  and  _375
REMARK  152  A    between atoms: _375  and  _376
REMARK  153  A    between atoms: _376  and  _377
REMARK  154  A    between atoms: _377  and  _378
REMARK  155  A    between atoms: _387  and  _389
REMARK  156  A    between atoms: _389  and  _390
REMARK  157  A    between atoms: _389  and  _392
REMARK  158  A    between atoms: _392  and  _393
REMARK  159  A    between atoms: _396  and  _398
REMARK  160  A    between atoms: _398  and  _399
REMARK  161  A    between atoms: _402  and  _404
REMARK  162  A    between atoms: _404  and  _405
REMARK  163  A    between atoms: _404  and  _407
REMARK  164  A    between atoms: _407  and  _408
REMARK  165  A    between atoms: _408  and  _409
REMARK  166  A    between atoms: _412  and  _414
REMARK  167  A    between atoms: _414  and  _415
REMARK  168  A    between atoms: _414  and  _417
REMARK  169  A    between atoms: _417  and  _418
REMARK  170  A    between atoms: _428  and  _430
REMARK  171  A    between atoms: _430  and  _431
REMARK  172  A    between atoms: _434  and  _436
REMARK  173  A    between atoms: _436  and  _437
REMARK  174  A    between atoms: _436  and  _439
REMARK  175  A    between atoms: _439  and  _440
REMARK  176  A    between atoms: _442  and  _444
REMARK  177  A    between atoms: _444  and  _445
REMARK  178  A    between atoms: _447  and  _449
REMARK  179  A    between atoms: _449  and  _450
REMARK  180  A    between atoms: _449  and  _452
REMARK  181  A    between atoms: _452  and  _453
REMARK  182  A    between atoms: _458  and  _460
REMARK  183  A    between atoms: _460  and  _461
REMARK  184  A    between atoms: _463  and  _465
REMARK  185  A    between atoms: _465  and  _466
REMARK  186  A    between atoms: _465  and  _468
REMARK  187  A    between atoms: _468  and  _469
REMARK  188  A    between atoms: _469  and  _471
REMARK  189  A    between atoms: _471  and  CA_629
REMARK  190  A    between atoms: _472  and  _474
REMARK  191  A    between atoms: _474  and  _475
REMARK  192  A    between atoms: _474  and  _477
REMARK  193  A    between atoms: _477  and  _478
REMARK  194  A    between atoms: _480  and  _482
REMARK  195  A    between atoms: _482  and  _483
REMARK  196  A    between atoms: _482  and  _485
REMARK  197  A    between atoms: _487  and  _489
REMARK  198  A    between atoms: _489  and  _490
REMARK  199  A    between atoms: _489  and  _492
REMARK  200  A    between atoms: _494  and  _496
REMARK  201  A    between atoms: _496  and  _497
REMARK  202  A    between atoms: _496  and  _499
REMARK  203  A    between atoms: _499  and  _500
REMARK  204  A    between atoms: _503  and  _505
REMARK  205  A    between atoms: _505  and  _506
REMARK  206  A    between atoms: _508  and  _510
REMARK  207  A    between atoms: _510  and  _511
REMARK  208  A    between atoms: _510  and  _513
REMARK  209  A    between atoms: _513  and  _514
REMARK  210  A    between atoms: _519  and  _520
REMARK  211  A    between atoms: _522  and  _524
REMARK  212  A    between atoms: _524  and  _525
REMARK  213  A    between atoms: _524  and  _527
REMARK  214  A    between atoms: _527  and  _528
REMARK  215  A    between atoms: _531  and  _533
REMARK  216  A    between atoms: _533  and  _534
REMARK  217  A    between atoms: _533  and  _536
REMARK  218  A    between atoms: _536  and  _537
REMARK  219  A    between atoms: _542  and  _544
REMARK  220  A    between atoms: _544  and  _545
REMARK  221  A    between atoms: _544  and  _547
REMARK  222  A    between atoms: _547  and  _548
REMARK  223  A    between atoms: _551  and  _553
REMARK  224  A    between atoms: _553  and  _554
REMARK  225  A    between atoms: _553  and  _556
REMARK  226  A    between atoms: _556  and  _557
REMARK  227  A    between atoms: _559  and  _561
REMARK  228  A    between atoms: _561  and  _562
REMARK  229  A    between atoms: _561  and  _564
REMARK  230  A    between atoms: _564  and  _565
REMARK  231  A    between atoms: _568  and  _570
REMARK  232  A    between atoms: _570  and  _571
REMARK  233  A    between atoms: _570  and  _573
REMARK  234  A    between atoms: _573  and  _574
REMARK  235  A    between atoms: _574  and  _575
REMARK  236  A    between atoms: _578  and  _580
REMARK  237  A    between atoms: _580  and  _581
REMARK  238  A    between atoms: _580  and  _583
REMARK  239  A    between atoms: _583  and  _584
REMARK  240  A    between atoms: _587  and  _589
REMARK  241  A    between atoms: _589  and  _590
REMARK  242  A    between atoms: _592  and  _594
REMARK  243  A    between atoms: _594  and  _595
REMARK  244  A    between atoms: _594  and  _597
REMARK  245  A    between atoms: _597  and  _598
REMARK  246  A    between atoms: _601  and  _603
REMARK  247  A    between atoms: _603  and  _604
REMARK  248  A    between atoms: _603  and  _606
REMARK  249  A    between atoms: _606  and  _607
REMARK  250  A    between atoms: _609  and  _611
REMARK  251  A    between atoms: _611  and  _612
REMARK  252  A    between atoms: _615  and  _617
REMARK  253  A    between atoms: _617  and  _618
REMARK  254  A    between atoms: _617  and  _620
REMARK  255  A    between atoms: _620  and  _621
REMARK  256  A    between atoms: _623  and  _625
REMARK  257  A    between atoms: _625  and  _626
REMARK                            x       y       z     vdW  Elec       q    Type
REMARK                         _______ _______ _______ _____ _____    ______ ____
ROOT
ATOM      1  CA  SER A   3      17.075  24.643  -3.006  0.00  0.00    +0.178 C 
ENDROOT
BRANCH   1   3
ATOM      2  C   ALA A   2      18.371  26.061  -1.518  0.00  0.00    +0.241 C 
ATOM      3  N   SER A   3      17.174  25.647  -1.942  0.00  0.00    -0.295 N 
ATOM      4  H   SER A   3      16.309  26.038  -1.516  0.00  0.00    +0.150 HD
ATOM      5  O   ALA A   2      19.424  25.667  -2.025  0.00  0.00    -0.273 OA
BRANCH   2   6
ATOM      6  CA  ALA A   2      18.423  27.059  -0.351  0.00  0.00    +0.149 C 
ATOM      7  CB  ALA A   2      18.982  28.390  -0.821  0.00  0.00    +0.031 C 
BRANCH   6  10
ATOM      8  C   TRP A   1      18.909  25.520   1.492  0.00  0.00    +0.239 C 
ATOM      9  O   TRP A   1      17.742  25.128   1.533  0.00  0.00    -0.274 OA
ATOM     10  N   ALA A   2      19.322  26.456   0.642  0.00  0.00    -0.297 N 
ATOM     11  H   ALA A   2      20.312  26.771   0.682  0.00  0.00    +0.150 HD
BRANCH   8  12
ATOM     12  CA  TRP A   1      19.967  24.932   2.425  0.00  0.00    +0.149 C 
BRANCH  12  13
ATOM     13  N   TRP A   1      19.498  24.623   3.773  0.00  0.00    -0.238 NA
ATOM     14  H   TRP A   1      18.645  24.042   3.898  0.00  0.00    +0.142 HD
ENDBRANCH  12  13
BRANCH  12  15
ATOM     15  CB  TRP A   1      20.535  23.649   1.781  0.00  0.00    +0.054 C 
BRANCH  15  16
ATOM     16  CG  TRP A   1      21.807  23.875   1.033  0.00  0.00    -0.002 A 
ATOM     17  CD2 TRP A   1      23.135  23.783   1.565  0.00  0.00    +0.013 A 
ATOM     18  CE3 TRP A   1      23.660  23.385   2.806  0.00  0.00    +0.001 A 
ATOM     19  CZ3 TRP A   1      25.048  23.431   2.991  0.00  0.00    +0.000 A 
ATOM     20  CH2 TRP A   1      25.910  23.869   1.949  0.00  0.00    +0.001 A 
ATOM     21  CZ2 TRP A   1      25.414  24.260   0.725  0.00  0.00    +0.017 A 
ATOM     22  CE2 TRP A   1      24.025  24.215   0.546  0.00  0.00    +0.056 A 
ATOM     23  NE1 TRP A   1      23.267  24.542  -0.546  0.00  0.00    -0.352 N 
ATOM     24  HE1 TRP A   1      23.635  24.892  -1.454  0.00  0.00    +0.166 HD
ATOM     25  CD1 TRP A   1      21.938  24.332  -0.248  0.00  0.00    +0.068 A 
ENDBRANCH  15  16
ENDBRANCH  12  15
ENDBRANCH   8  12
ENDBRANCH   6  10
ENDBRANCH   2   6
ENDBRANCH   1   3
BRANCH   1  26
ATOM     26  C   SER A   3      17.564  25.037  -4.396  0.00  0.00    +0.243 C 
ATOM     27  N   GLY A   4      17.734  26.328  -4.673  0.00  0.00    -0.295 N 
ATOM     28  H   GLY A   4      17.501  27.052  -3.964  0.00  0.00    +0.150 HD
ATOM     29  O   SER A   3      17.796  24.162  -5.217  0.00  0.00    -0.273 OA
BRANCH  27  30
ATOM     30  CA  GLY A   4      18.251  26.719  -5.983  0.00  0.00    +0.176 C 
BRANCH  30  31
ATOM     31  C   GLY A   4      17.459  27.731  -6.797  0.00  0.00    +0.243 C 
ATOM     32  O   GLY A   4      16.259  27.906  -6.586  0.00  0.00    -0.273 OA
ATOM     33  N   ASN A   5      18.132  28.402  -7.735  0.00  0.00    -0.297 N 
ATOM     34  H   ASN A   5      19.146  28.208  -7.864  0.00  0.00    +0.150 HD
BRANCH  33  35
ATOM     35  CA  ASN A   5      17.489  29.398  -8.583  0.00  0.00    +0.158 C 
BRANCH  35  36
ATOM     36  C   ASN A   5      17.419  28.987 -10.049  0.00  0.00    +0.241 C 
ATOM     37  N   GLY A   6      17.554  27.700 -10.347  0.00  0.00    -0.296 N 
ATOM     38  H   GLY A   6      17.665  26.998  -9.588  0.00  0.00    +0.150 HD
ATOM     39  O   ASN A   5      17.232  29.835 -10.910  0.00  0.00    -0.273 OA
BRANCH  37  40
ATOM     40  CA  GLY A   6      17.546  27.274 -11.742  0.00  0.00    +0.163 C 
BRANCH  40  41
ATOM     41  C   GLY A   6      16.220  27.022 -12.435  0.00  0.00    +0.229 C 
ATOM     42  O   GLY A   6      16.181  26.323 -13.460  0.00  0.00    -0.286 OA
ENDBRANCH  40  41
ENDBRANCH  37  40
ENDBRANCH  35  36
BRANCH  35  43
ATOM     43  CB  ASN A   5      18.234  30.739  -8.515  0.00  0.00    +0.114 C 
BRANCH  43  44
ATOM     44  CG  ASN A   5      17.842  31.578  -7.315  0.00  0.00    +0.222 C 
ATOM     45  OD1 ASN A   5      16.732  31.473  -6.802  0.00  0.00    -0.275 OA
ATOM     46  ND2 ASN A   5      18.753  32.444  -6.879  0.00  0.00    -0.329 N 
ATOM     47 HD21 ASN A   5      18.536  33.065  -6.074  0.00  0.00    +0.145 HD
ATOM     48 HD22 ASN A   5      19.682  32.500  -7.344  0.00  0.00    +0.145 HD
ENDBRANCH  43  44
ENDBRANCH  35  43
ENDBRANCH  33  35
ENDBRANCH  30  31
ENDBRANCH  27  30
ENDBRANCH   1  26
BRANCH   1  49
ATOM     49  CB  SER A   3      15.646  24.039  -3.097  0.00  0.00    +0.166 C 
BRANCH  49  50
ATOM     50  OG  SER A   3      14.612  25.001  -3.265  0.00  0.00    -0.380 OA
ATOM     51  H   SER A   3      13.738  24.539  -3.314  0.00  0.00    +0.211 HD
ENDBRANCH  49  50
ENDBRANCH   1  49
TORSDOF 18
REMARK  Name = ../refined-set-2016/4omc/4omc_pocket.pdb
REMARK  257 active torsions:
REMARK  status: ('A' for Active; 'I' for Inactive)
REMARK    1  A    between atoms: _1  and  _3
REMARK    2  A    between atoms: _3  and  _4
REMARK    3  A    between atoms: _3  and  _6
REMARK    4  A    between atoms: _6  and  _7
REMARK    5  A    between atoms: _10  and  _12
REMARK    6  A    between atoms: _12  and  _13
REMARK    7  A    between atoms: _12  and  _15
REMARK    8  A    between atoms: _15  and  _16
REMARK    9  A    between atoms: _19  and  _21
REMARK   10  A    between atoms: _21  and  _22
REMARK   11  A    between atoms: _24  and  _26
REMARK   12  A    between atoms: _26  and  _27
REMARK   13  A    between atoms: _26  and  _29
REMARK   14  A    between atoms: _29  and  _30
REMARK   15  A    between atoms: _35  and  _37
REMARK   16  A    between atoms: _37  and  _38
REMARK   17  A    between atoms: _37  and  _40
REMARK   18  A    between atoms: _40  and  _41
REMARK   19  A    between atoms: _41  and  _42
REMARK   20  A    between atoms: _42  and  _43
REMARK   21  A    between atoms: _52  and  _54
REMARK   22  A    between atoms: _54  and  _55
REMARK   23  A    between atoms: _54  and  _57
REMARK   24  A    between atoms: _57  and  _58
REMARK   25  A    between atoms: _61  and  _63
REMARK   26  A    between atoms: _63  and  _64
REMARK   27  A    between atoms: _63  and  _66
REMARK   28  A    between atoms: _66  and  _67
REMARK   29  A    between atoms: _72  and  _74
REMARK   30  A    between atoms: _74  and  _75
REMARK   31  A    between atoms: _74  and  _77
REMARK   32  A    between atoms: _77  and  _78
REMARK   33  A    between atoms: _81  and  _83
REMARK   34  A    between atoms: _83  and  _84
REMARK   35  A    between atoms: _83  and  _86
REMARK   36  A    between atoms: _86  and  _87
REMARK   37  A    between atoms: _92  and  _94
REMARK   38  A    between atoms: _94  and  _95
REMARK   39  A    between atoms: _94  and  _97
REMARK   40  A    between atoms: _97  and  _98
REMARK   41  A    between atoms: _98  and  _99
REMARK   42  A    between atoms: _99  and  _100
REMARK   43  A    between atoms: _109  and  _111
REMARK   44  A    between atoms: _111  and  _112
REMARK   45  A    between atoms: _111  and  _114
REMARK   46  A    between atoms: _114  and  _115
REMARK   47  A    between atoms: _120  and  _122
REMARK   48  A    between atoms: _122  and  _123
REMARK   49  A    between atoms: _125  and  _127
REMARK   50  A    between atoms: _127  and  _128
REMARK   51  A    between atoms: _127  and  _130
REMARK   52  A    between atoms: _130  and  _131
REMARK   53  A    between atoms: _134  and  _136
REMARK   54  A    between atoms: _136  and  _137
REMARK   55  A    between atoms: _136  and  _139
REMARK   56  A    between atoms: _141  and  _143
REMARK   57  A    between atoms: _143  and  _144
REMARK   58  A    between atoms: _143  and  _146
REMARK   59  A    between atoms: _146  and  _147
REMARK   60  A    between atoms: _147  and  _148
REMARK   61  A    between atoms: _148  and  _149
REMARK   62  A    between atoms: _158  and  _160
REMARK   63  A    between atoms: _160  and  _161
REMARK   64  A    between atoms: _160  and  _163
REMARK   65  A    between atoms: _163  and  _164
REMARK   66  A    between atoms: _164  and  _165
REMARK   67  A    between atoms: _167  and  _169
REMARK   68  A    between atoms: _169  and  _170
REMARK   69  A    between atoms: _169  and  _172
REMARK   70  A    between atoms: _172  and  _173
REMARK   71  A    between atoms: _176  and  _178
REMARK   72  A    between atoms: _178  and  _179
REMARK   73  A    between atoms: _178  and  _181
REMARK   74  A    between atoms: _181  and  _182
REMARK   75  A    between atoms: _185  and  _187
REMARK   76  A    between atoms: _187  and  _188
REMARK   77  A    between atoms: _190  and  _192
REMARK   78  A    between atoms: _192  and  _193
REMARK   79  A    between atoms: _192  and  _195
REMARK   80  A    between atoms: _195  and  _196
REMARK   81  A    between atoms: _196  and  _197
REMARK   82  A    between atoms: _200  and  _202
REMARK   83  A    between atoms: _202  and  _203
REMARK   84  A    between atoms: _202  and  _205
REMARK   85  A    between atoms: _208  and  _210
REMARK   86  A    between atoms: _210  and  _211
REMARK   87  A    between atoms: _210  and  _213
REMARK   88  A    between atoms: _213  and  _214
REMARK   89  A    between atoms: _217  and  _219
REMARK   90  A    between atoms: _219  and  _220
REMARK   91  A    between atoms: _219  and  _222
REMARK   92  A    between atoms: _222  and  _223
REMARK   93  A    between atoms: _226  and  _228
REMARK   94  A    between atoms: _228  and  _229
REMARK   95  A    between atoms: _232  and  _234
REMARK   96  A    between atoms: _234  and  _235
REMARK   97  A    between atoms: _234  and  _237
REMARK   98  A    between atoms: _240  and  _242
REMARK   99  A    between atoms: _242  and  _243
REMARK  100  A    between atoms: _242  and  _245
REMARK  101  A    between atoms: _245  and  _246
REMARK  102  A    between atoms: _246  and  _247
REMARK  103  A    between atoms: _250  and  _252
REMARK  104  A    between atoms: _252  and  _253
REMARK  105  A    between atoms: _256  and  _258
REMARK  106  A    between atoms: _258  and  _259
REMARK  107  A    between atoms: _262  and  _264
REMARK  108  A    between atoms: _264  and  _265
REMARK  109  A    between atoms: _264  and  _267
REMARK  110  A    between atoms: _267  and  _268
REMARK  111  A    between atoms: _270  and  _272
REMARK  112  A    between atoms: _272  and  _273
REMARK  113  A    between atoms: _272  and  _275
REMARK  114  A    between atoms: _275  and  _276
REMARK  115  A    between atoms: _286  and  _288
REMARK  116  A    between atoms: _288  and  _289
REMARK  117  A    between atoms: _292  and  _293
REMARK  118  A    between atoms: _298  and  _300
REMARK  119  A    between atoms: _300  and  _301
REMARK  120  A    between atoms: _300  and  _303
REMARK  121  A    between atoms: _303  and  _304
REMARK  122  A    between atoms: _304  and  _305
REMARK  123  A    between atoms: _308  and  _310
REMARK  124  A    between atoms: _310  and  _311
REMARK  125  A    between atoms: _310  and  _313
REMARK  126  A    between atoms: _313  and  _314
REMARK  127  A    between atoms: _314  and  _315
REMARK  128  A    between atoms: _315  and  CA_629
REMARK  129  A    between atoms: _317  and  _319
REMARK  130  A    between atoms: _319  and  _320
REMARK  131  A    between atoms: _319  and  _322
REMARK  132  A    between atoms: _322  and  _323
REMARK  133  A    between atoms: _326  and  _328
REMARK  134  A    between atoms: _328  and  _329
REMARK  135  A    between atoms: _328  and  _331
REMARK  136  A    between atoms: _331  and  _332
REMARK  137  A    between atoms: _335  and  _337
REMARK  138  A    between atoms: _337  and  _338
REMARK  139  A    between atoms: _337  and  _340
REMARK  140  A    between atoms: _343  and  _345
REMARK  141  A    between atoms: _345  and  _346
REMARK  142  A    between atoms: _345  and  _348
REMARK  143  A    between atoms: _348  and  _349
REMARK  144  A    between atoms: _352  and  _354
REMARK  145  A    between atoms: _354  and  _355
REMARK  146  A    between atoms: _358  and  _359
REMARK  147  A    between atoms: _364  and  _366
REMARK  148  A    between atoms: _366  and  _367
REMARK  149  A    between atoms: _370  and  _372
REMARK  150  A    between atoms: _372  and  _373
REMARK  151  A    between atoms: _372  and  _375
REMARK  152  A    between atoms: _375  and  _376
REMARK  153  A    between atoms: _376  and  _377
REMARK  154  A    between atoms: _377  and  _378
REMARK  155  A    between atoms: _387  and  _389
REMARK  156  A    between atoms: _389  and  _390
REMARK  157  A    between atoms: _389  and  _392
REMARK  158  A    between atoms: _392  and  _393
REMARK  159  A    between atoms: _396  and  _398
REMARK  160  A    between atoms: _398  and  _399
REMARK  161  A    between atoms: _402  and  _404
REMARK  162  A    between atoms: _404  and  _405
REMARK  163  A    between atoms: _404  and  _407
REMARK  164  A    between atoms: _407  and  _408
REMARK  165  A    between atoms: _408  and  _409
REMARK  166  A    between atoms: _412  and  _414
REMARK  167  A    between atoms: _414  and  _415
REMARK  168  A    between atoms: _414  and  _417
REMARK  169  A    between atoms: _417  and  _418
REMARK  170  A    between atoms: _428  and  _430
REMARK  171  A    between atoms: _430  and  _431
REMARK  172  A    between atoms: _434  and  _436
REMARK  173  A    between atoms: _436  and  _437
REMARK  174  A    between atoms: _436  and  _439
REMARK  175  A    between atoms: _439  and  _440
REMARK  176  A    between atoms: _442  and  _444
REMARK  177  A    between atoms: _444  and  _445
REMARK  178  A    between atoms: _447  and  _449
REMARK  179  A    between atoms: _449  and  _450
REMARK  180  A    between atoms: _449  and  _452
REMARK  181  A    between atoms: _452  and  _453
REMARK  182  A    between atoms: _458  and  _460
REMARK  183  A    between atoms: _460  and  _461
REMARK  184  A    between atoms: _463  and  _465
REMARK  185  A    between atoms: _465  and  _466
REMARK  186  A    between atoms: _465  and  _468
REMARK  187  A    between atoms: _468  and  _469
REMARK  188  A    between atoms: _469  and  _471
REMARK  189  A    between atoms: _471  and  CA_629
REMARK  190  A    between atoms: _472  and  _474
REMARK  191  A    between atoms: _474  and  _475
REMARK  192  A    between atoms: _474  and  _477
REMARK  193  A    between atoms: _477  and  _478
REMARK  194  A    between atoms: _480  and  _482
REMARK  195  A    between atoms: _482  and  _483
REMARK  196  A    between atoms: _482  and  _485
REMARK  197  A    between atoms: _487  and  _489
REMARK  198  A    between atoms: _489  and  _490
REMARK  199  A    between atoms: _489  and  _492
REMARK  200  A    between atoms: _494  and  _496
REMARK  201  A    between atoms: _496  and  _497
REMARK  202  A    between atoms: _496  and  _499
REMARK  203  A    between atoms: _499  and  _500
REMARK  204  A    between atoms: _503  and  _505
REMARK  205  A    between atoms: _505  and  _506
REMARK  206  A    between atoms: _508  and  _510
REMARK  207  A    between atoms: _510  and  _511
REMARK  208  A    between atoms: _510  and  _513
REMARK  209  A    between atoms: _513  and  _514
REMARK  210  A    between atoms: _519  and  _520
REMARK  211  A    between atoms: _522  and  _524
REMARK  212  A    between atoms: _524  and  _525
REMARK  213  A    between atoms: _524  and  _527
REMARK  214  A    between atoms: _527  and  _528
REMARK  215  A    between atoms: _531  and  _533
REMARK  216  A    between atoms: _533  and  _534
REMARK  217  A    between atoms: _533  and  _536
REMARK  218  A    between atoms: _536  and  _537
REMARK  219  A    between atoms: _542  and  _544
REMARK  220  A    between atoms: _544  and  _545
REMARK  221  A    between atoms: _544  and  _547
REMARK  222  A    between atoms: _547  and  _548
REMARK  223  A    between atoms: _551  and  _553
REMARK  224  A    between atoms: _553  and  _554
REMARK  225  A    between atoms: _553  and  _556
REMARK  226  A    between atoms: _556  and  _557
REMARK  227  A    between atoms: _559  and  _561
REMARK  228  A    between atoms: _561  and  _562
REMARK  229  A    between atoms: _561  and  _564
REMARK  230  A    between atoms: _564  and  _565
REMARK  231  A    between atoms: _568  and  _570
REMARK  232  A    between atoms: _570  and  _571
REMARK  233  A    between atoms: _570  and  _573
REMARK  234  A    between atoms: _573  and  _574
REMARK  235  A    between atoms: _574  and  _575
REMARK  236  A    between atoms: _578  and  _580
REMARK  237  A    between atoms: _580  and  _581
REMARK  238  A    between atoms: _580  and  _583
REMARK  239  A    between atoms: _583  and  _584
REMARK  240  A    between atoms: _587  and  _589
REMARK  241  A    between atoms: _589  and  _590
REMARK  242  A    between atoms: _592  and  _594
REMARK  243  A    between atoms: _594  and  _595
REMARK  244  A    between atoms: _594  and  _597
REMARK  245  A    between atoms: _597  and  _598
REMARK  246  A    between atoms: _601  and  _603
REMARK  247  A    between atoms: _603  and  _604
REMARK  248  A    between atoms: _603  and  _606
REMARK  249  A    between atoms: _606  and  _607
REMARK  250  A    between atoms: _609  and  _611
REMARK  251  A    between atoms: _611  and  _612
REMARK  252  A    between atoms: _615  and  _617
REMARK  253  A    between atoms: _617  and  _618
REMARK  254  A    between atoms: _617  and  _620
REMARK  255  A    between atoms: _620  and  _621
REMARK  256  A    between atoms: _623  and  _625
REMARK  257  A    between atoms: _625  and  _626
REMARK                            x       y       z     vdW  Elec       q    Type
REMARK                         _______ _______ _______ _____ _____    ______ ____
ROOT
ATOM      1  CA  TYR A   4      23.985  19.724  -1.029  0.00  0.00    +0.153 C 
ENDROOT
BRANCH   1   4
ATOM      2  C   GLY A   3      24.199  17.724  -2.393  0.00  0.00    +0.243 C 
ATOM      3  O   GLY A   3      24.135  16.997  -1.401  0.00  0.00    -0.273 OA
ATOM      4  N   TYR A   4      24.148  19.053  -2.315  0.00  0.00    -0.297 N 
ATOM      5  H   TYR A   4      24.225  19.621  -3.183  0.00  0.00    +0.150 HD
BRANCH   2   6
ATOM      6  CA  GLY A   3      24.359  17.107  -3.770  0.00  0.00    +0.176 C 
BRANCH   6   9
ATOM      7  C   ASP A   2      22.819  18.347  -5.154  0.00  0.00    +0.241 C 
ATOM      8  O   ASP A   2      21.890  18.060  -4.411  0.00  0.00    -0.273 OA
ATOM      9  N   GLY A   3      24.060  17.949  -4.920  0.00  0.00    -0.295 N 
ATOM     10  H   GLY A   3      24.826  18.239  -5.561  0.00  0.00    +0.150 HD
BRANCH   7  11
ATOM     11  CA  ASP A   2      22.586  19.195  -6.403  0.00  0.00    +0.160 C 
BRANCH  11  13
ATOM     12  C   CYS A   1      22.150  18.041  -8.529  0.00  0.00    +0.239 C 
ATOM     13  N   ASP A   2      21.791  18.358  -7.294  0.00  0.00    -0.297 N 
ATOM     14  H   ASP A   2      20.887  17.987  -6.938  0.00  0.00    +0.150 HD
ATOM     15  O   CYS A   1      23.198  18.414  -9.042  0.00  0.00    -0.274 OA
BRANCH  12  16
ATOM     16  CA  CYS A   1      21.157  17.159  -9.283  0.00  0.00    +0.156 C 
BRANCH  16  17
ATOM     17  N   CYS A   1      19.877  17.218  -8.587  0.00  0.00    -0.237 NA
ATOM     18  H   CYS A   1      19.240  18.020  -8.769  0.00  0.00    +0.142 HD
ENDBRANCH  16  17
BRANCH  16  19
ATOM     19  CB  CYS A   1      21.003  17.652 -10.730  0.00  0.00    +0.095 C 
ATOM     20  SG  CYS A   1      20.094  16.476 -11.815  0.00  0.00    -0.080 S 
ENDBRANCH  16  19
ENDBRANCH  12  16
ENDBRANCH  11  13
BRANCH  11  21
ATOM     21  CB  ASP A   2      21.778  20.454  -6.053  0.00  0.00    +0.143 C 
BRANCH  21  22
ATOM     22  CG  ASP A   2      22.473  21.342  -5.053  0.00  0.00    +0.367 C 
ATOM     23  OD2 ASP A   2      23.226  20.815  -4.196  0.00  0.00    -0.246 OA
ATOM     24  OD1 ASP A   2      22.240  22.576  -5.113  0.00  0.00    -0.246 OA
ENDBRANCH  21  22
ENDBRANCH  11  21
ENDBRANCH   7  11
ENDBRANCH   6   9
ENDBRANCH   2   6
ENDBRANCH   1   4
BRANCH   1  25
ATOM     25  C   TYR A   4      22.526  19.690  -0.622  0.00  0.00    +0.241 C 
ATOM     26  O   TYR A   4      22.199  19.374   0.523  0.00  0.00    -0.273 OA
ATOM     27  N   THR A   5      21.646  20.025  -1.557  0.00  0.00    -0.295 N 
ATOM     28  H   THR A   5      21.980  20.300  -2.503  0.00  0.00    +0.150 HD
BRANCH  27  29
ATOM     29  CA  THR A   5      20.217  20.011  -1.273  0.00  0.00    +0.176 C 
BRANCH  29  30
ATOM     30  C   THR A   5      19.694  18.571  -1.165  0.00  0.00    +0.243 C 
ATOM     31  O   THR A   5      18.867  18.252  -0.307  0.00  0.00    -0.273 OA
ATOM     32  N   ASN A   6      20.221  17.706  -2.025  0.00  0.00    -0.298 N 
ATOM     33  H   ASN A   6      20.956  18.045  -2.678  0.00  0.00    +0.150 HD
BRANCH  32  34
ATOM     34  CA  ASN A   6      19.820  16.303  -2.100  0.00  0.00    +0.146 C 
BRANCH  34  35
ATOM     35  C   ASN A   6      20.274  15.474  -0.903  0.00  0.00    +0.227 C 
ATOM     36  O   ASN A   6      19.792  14.363  -0.701  0.00  0.00    -0.286 OA
ENDBRANCH  34  35
BRANCH  34  37
ATOM     37  CB  ASN A   6      20.384  15.706  -3.381  0.00  0.00    +0.112 C 
BRANCH  37  38
ATOM     38  CG  ASN A   6      19.750  14.396  -3.744  0.00  0.00    +0.222 C 
ATOM     39  OD1 ASN A   6      18.526  14.291  -3.885  0.00  0.00    -0.275 OA
ATOM     40  ND2 ASN A   6      20.578  13.380  -3.918  0.00  0.00    -0.329 N 
ATOM     41 HD21 ASN A   6      21.601  13.515  -3.788  0.00  0.00    +0.145 HD
ATOM     42 HD22 ASN A   6      20.206  12.446  -4.184  0.00  0.00    +0.145 HD
ENDBRANCH  37  38
ENDBRANCH  34  37
ENDBRANCH  32  34
ENDBRANCH  29  30
BRANCH  29  43
ATOM     43  CB  THR A   5      19.438  20.737  -2.386  0.00  0.00    +0.137 C 
ATOM     44  CG2 THR A   5      19.657  22.209  -2.306  0.00  0.00    +0.034 C 
BRANCH  43  45
ATOM     45  OG1 THR A   5      19.884  20.274  -3.668  0.00  0.00    -0.382 OA
ATOM     46  HG1 THR A   5      19.727  19.299  -3.738  0.00  0.00    +0.210 HD
ENDBRANCH  43  45
ENDBRANCH  29  43
ENDBRANCH  27  29
ENDBRANCH   1  25
BRANCH   1  47
ATOM     47  CB  TYR A   4      24.456  21.180  -1.112  0.00  0.00    +0.055 C 
BRANCH  47  48
ATOM     48  CG  TYR A   4      25.897  21.293  -1.523  0.00  0.00    -0.020 A 
ATOM     49  CD2 TYR A   4      26.902  21.337  -0.560  0.00  0.00    -0.001 A 
ATOM     50  CE2 TYR A   4      28.224  21.394  -0.917  0.00  0.00    +0.036 A 
ATOM     51  CZ  TYR A   4      28.580  21.412  -2.255  0.00  0.00    +0.134 A 
ATOM     52  CE1 TYR A   4      27.608  21.368  -3.247  0.00  0.00    +0.036 A 
ATOM     53  CD1 TYR A   4      26.266  21.310  -2.873  0.00  0.00    -0.001 A 
BRANCH  51  54
ATOM     54  OH  TYR A   4      29.913  21.468  -2.565  0.00  0.00    -0.506 OA
ATOM     55  HH  TYR A   4      30.305  22.293  -2.183  0.00  0.00    +0.292 HD
ENDBRANCH  51  54
ENDBRANCH  47  48
ENDBRANCH   1  47
TORSDOF 22
REMARK  Name = ../refined-set-2016/4omc/4omc_pocket.pdb
REMARK  257 active torsions:
REMARK  status: ('A' for Active; 'I' for Inactive)
REMARK    1  A    between atoms: _1  and  _3
REMARK    2  A    between atoms: _3  and  _4
REMARK    3  A    between atoms: _3  and  _6
REMARK    4  A    between atoms: _6  and  _7
REMARK    5  A    between atoms: _10  and  _12
REMARK    6  A    between atoms: _12  and  _13
REMARK    7  A    between atoms: _12  and  _15
REMARK    8  A    between atoms: _15  and  _16
REMARK    9  A    between atoms: _19  and  _21
REMARK   10  A    between atoms: _21  and  _22
REMARK   11  A    between atoms: _24  and  _26
REMARK   12  A    between atoms: _26  and  _27
REMARK   13  A    between atoms: _26  and  _29
REMARK   14  A    between atoms: _29  and  _30
REMARK   15  A    between atoms: _35  and  _37
REMARK   16  A    between atoms: _37  and  _38
REMARK   17  A    between atoms: _37  and  _40
REMARK   18  A    between atoms: _40  and  _41
REMARK   19  A    between atoms: _41  and  _42
REMARK   20  A    between atoms: _42  and  _43
REMARK   21  A    between atoms: _52  and  _54
REMARK   22  A    between atoms: _54  and  _55
REMARK   23  A    between atoms: _54  and  _57
REMARK   24  A    between atoms: _57  and  _58
REMARK   25  A    between atoms: _61  and  _63
REMARK   26  A    between atoms: _63  and  _64
REMARK   27  A    between atoms: _63  and  _66
REMARK   28  A    between atoms: _66  and  _67
REMARK   29  A    between atoms: _72  and  _74
REMARK   30  A    between atoms: _74  and  _75
REMARK   31  A    between atoms: _74  and  _77
REMARK   32  A    between atoms: _77  and  _78
REMARK   33  A    between atoms: _81  and  _83
REMARK   34  A    between atoms: _83  and  _84
REMARK   35  A    between atoms: _83  and  _86
REMARK   36  A    between atoms: _86  and  _87
REMARK   37  A    between atoms: _92  and  _94
REMARK   38  A    between atoms: _94  and  _95
REMARK   39  A    between atoms: _94  and  _97
REMARK   40  A    between atoms: _97  and  _98
REMARK   41  A    between atoms: _98  and  _99
REMARK   42  A    between atoms: _99  and  _100
REMARK   43  A    between atoms: _109  and  _111
REMARK   44  A    between atoms: _111  and  _112
REMARK   45  A    between atoms: _111  and  _114
REMARK   46  A    between atoms: _114  and  _115
REMARK   47  A    between atoms: _120  and  _122
REMARK   48  A    between atoms: _122  and  _123
REMARK   49  A    between atoms: _125  and  _127
REMARK   50  A    between atoms: _127  and  _128
REMARK   51  A    between atoms: _127  and  _130
REMARK   52  A    between atoms: _130  and  _131
REMARK   53  A    between atoms: _134  and  _136
REMARK   54  A    between atoms: _136  and  _137
REMARK   55  A    between atoms: _136  and  _139
REMARK   56  A    between atoms: _141  and  _143
REMARK   57  A    between atoms: _143  and  _144
REMARK   58  A    between atoms: _143  and  _146
REMARK   59  A    between atoms: _146  and  _147
REMARK   60  A    between atoms: _147  and  _148
REMARK   61  A    between atoms: _148  and  _149
REMARK   62  A    between atoms: _158  and  _160
REMARK   63  A    between atoms: _160  and  _161
REMARK   64  A    between atoms: _160  and  _163
REMARK   65  A    between atoms: _163  and  _164
REMARK   66  A    between atoms: _164  and  _165
REMARK   67  A    between atoms: _167  and  _169
REMARK   68  A    between atoms: _169  and  _170
REMARK   69  A    between atoms: _169  and  _172
REMARK   70  A    between atoms: _172  and  _173
REMARK   71  A    between atoms: _176  and  _178
REMARK   72  A    between atoms: _178  and  _179
REMARK   73  A    between atoms: _178  and  _181
REMARK   74  A    between atoms: _181  and  _182
REMARK   75  A    between atoms: _185  and  _187
REMARK   76  A    between atoms: _187  and  _188
REMARK   77  A    between atoms: _190  and  _192
REMARK   78  A    between atoms: _192  and  _193
REMARK   79  A    between atoms: _192  and  _195
REMARK   80  A    between atoms: _195  and  _196
REMARK   81  A    between atoms: _196  and  _197
REMARK   82  A    between atoms: _200  and  _202
REMARK   83  A    between atoms: _202  and  _203
REMARK   84  A    between atoms: _202  and  _205
REMARK   85  A    between atoms: _208  and  _210
REMARK   86  A    between atoms: _210  and  _211
REMARK   87  A    between atoms: _210  and  _213
REMARK   88  A    between atoms: _213  and  _214
REMARK   89  A    between atoms: _217  and  _219
REMARK   90  A    between atoms: _219  and  _220
REMARK   91  A    between atoms: _219  and  _222
REMARK   92  A    between atoms: _222  and  _223
REMARK   93  A    between atoms: _226  and  _228
REMARK   94  A    between atoms: _228  and  _229
REMARK   95  A    between atoms: _232  and  _234
REMARK   96  A    between atoms: _234  and  _235
REMARK   97  A    between atoms: _234  and  _237
REMARK   98  A    between atoms: _240  and  _242
REMARK   99  A    between atoms: _242  and  _243
REMARK  100  A    between atoms: _242  and  _245
REMARK  101  A    between atoms: _245  and  _246
REMARK  102  A    between atoms: _246  and  _247
REMARK  103  A    between atoms: _250  and  _252
REMARK  104  A    between atoms: _252  and  _253
REMARK  105  A    between atoms: _256  and  _258
REMARK  106  A    between atoms: _258  and  _259
REMARK  107  A    between atoms: _262  and  _264
REMARK  108  A    between atoms: _264  and  _265
REMARK  109  A    between atoms: _264  and  _267
REMARK  110  A    between atoms: _267  and  _268
REMARK  111  A    between atoms: _270  and  _272
REMARK  112  A    between atoms: _272  and  _273
REMARK  113  A    between atoms: _272  and  _275
REMARK  114  A    between atoms: _275  and  _276
REMARK  115  A    between atoms: _286  and  _288
REMARK  116  A    between atoms: _288  and  _289
REMARK  117  A    between atoms: _292  and  _293
REMARK  118  A    between atoms: _298  and  _300
REMARK  119  A    between atoms: _300  and  _301
REMARK  120  A    between atoms: _300  and  _303
REMARK  121  A    between atoms: _303  and  _304
REMARK  122  A    between atoms: _304  and  _305
REMARK  123  A    between atoms: _308  and  _310
REMARK  124  A    between atoms: _310  and  _311
REMARK  125  A    between atoms: _310  and  _313
REMARK  126  A    between atoms: _313  and  _314
REMARK  127  A    between atoms: _314  and  _315
REMARK  128  A    between atoms: _315  and  CA_629
REMARK  129  A    between atoms: _317  and  _319
REMARK  130  A    between atoms: _319  and  _320
REMARK  131  A    between atoms: _319  and  _322
REMARK  132  A    between atoms: _322  and  _323
REMARK  133  A    between atoms: _326  and  _328
REMARK  134  A    between atoms: _328  and  _329
REMARK  135  A    between atoms: _328  and  _331
REMARK  136  A    between atoms: _331  and  _332
REMARK  137  A    between atoms: _335  and  _337
REMARK  138  A    between atoms: _337  and  _338
REMARK  139  A    between atoms: _337  and  _340
REMARK  140  A    between atoms: _343  and  _345
REMARK  141  A    between atoms: _345  and  _346
REMARK  142  A    between atoms: _345  and  _348
REMARK  143  A    between atoms: _348  and  _349
REMARK  144  A    between atoms: _352  and  _354
REMARK  145  A    between atoms: _354  and  _355
REMARK  146  A    between atoms: _358  and  _359
REMARK  147  A    between atoms: _364  and  _366
REMARK  148  A    between atoms: _366  and  _367
REMARK  149  A    between atoms: _370  and  _372
REMARK  150  A    between atoms: _372  and  _373
REMARK  151  A    between atoms: _372  and  _375
REMARK  152  A    between atoms: _375  and  _376
REMARK  153  A    between atoms: _376  and  _377
REMARK  154  A    between atoms: _377  and  _378
REMARK  155  A    between atoms: _387  and  _389
REMARK  156  A    between atoms: _389  and  _390
REMARK  157  A    between atoms: _389  and  _392
REMARK  158  A    between atoms: _392  and  _393
REMARK  159  A    between atoms: _396  and  _398
REMARK  160  A    between atoms: _398  and  _399
REMARK  161  A    between atoms: _402  and  _404
REMARK  162  A    between atoms: _404  and  _405
REMARK  163  A    between atoms: _404  and  _407
REMARK  164  A    between atoms: _407  and  _408
REMARK  165  A    between atoms: _408  and  _409
REMARK  166  A    between atoms: _412  and  _414
REMARK  167  A    between atoms: _414  and  _415
REMARK  168  A    between atoms: _414  and  _417
REMARK  169  A    between atoms: _417  and  _418
REMARK  170  A    between atoms: _428  and  _430
REMARK  171  A    between atoms: _430  and  _431
REMARK  172  A    between atoms: _434  and  _436
REMARK  173  A    between atoms: _436  and  _437
REMARK  174  A    between atoms: _436  and  _439
REMARK  175  A    between atoms: _439  and  _440
REMARK  176  A    between atoms: _442  and  _444
REMARK  177  A    between atoms: _444  and  _445
REMARK  178  A    between atoms: _447  and  _449
REMARK  179  A    between atoms: _449  and  _450
REMARK  180  A    between atoms: _449  and  _452
REMARK  181  A    between atoms: _452  and  _453
REMARK  182  A    between atoms: _458  and  _460
REMARK  183  A    between atoms: _460  and  _461
REMARK  184  A    between atoms: _463  and  _465
REMARK  185  A    between atoms: _465  and  _466
REMARK  186  A    between atoms: _465  and  _468
REMARK  187  A    between atoms: _468  and  _469
REMARK  188  A    between atoms: _469  and  _471
REMARK  189  A    between atoms: _471  and  CA_629
REMARK  190  A    between atoms: _472  and  _474
REMARK  191  A    between atoms: _474  and  _475
REMARK  192  A    between atoms: _474  and  _477
REMARK  193  A    between atoms: _477  and  _478
REMARK  194  A    between atoms: _480  and  _482
REMARK  195  A    between atoms: _482  and  _483
REMARK  196  A    between atoms: _482  and  _485
REMARK  197  A    between atoms: _487  and  _489
REMARK  198  A    between atoms: _489  and  _490
REMARK  199  A    between atoms: _489  and  _492
REMARK  200  A    between atoms: _494  and  _496
REMARK  201  A    between atoms: _496  and  _497
REMARK  202  A    between atoms: _496  and  _499
REMARK  203  A    between atoms: _499  and  _500
REMARK  204  A    between atoms: _503  and  _505
REMARK  205  A    between atoms: _505  and  _506
REMARK  206  A    between atoms: _508  and  _510
REMARK  207  A    between atoms: _510  and  _511
REMARK  208  A    between atoms: _510  and  _513
REMARK  209  A    between atoms: _513  and  _514
REMARK  210  A    between atoms: _519  and  _520
REMARK  211  A    between atoms: _522  and  _524
REMARK  212  A    between atoms: _524  and  _525
REMARK  213  A    between atoms: _524  and  _527
REMARK  214  A    between atoms: _527  and  _528
REMARK  215  A    between atoms: _531  and  _533
REMARK  216  A    between atoms: _533  and  _534
REMARK  217  A    between atoms: _533  and  _536
REMARK  218  A    between atoms: _536  and  _537
REMARK  219  A    between atoms: _542  and  _544
REMARK  220  A    between atoms: _544  and  _545
REMARK  221  A    between atoms: _544  and  _547
REMARK  222  A    between atoms: _547  and  _548
REMARK  223  A    between atoms: _551  and  _553
REMARK  224  A    between atoms: _553  and  _554
REMARK  225  A    between atoms: _553  and  _556
REMARK  226  A    between atoms: _556  and  _557
REMARK  227  A    between atoms: _559  and  _561
REMARK  228  A    between atoms: _561  and  _562
REMARK  229  A    between atoms: _561  and  _564
REMARK  230  A    between atoms: _564  and  _565
REMARK  231  A    between atoms: _568  and  _570
REMARK  232  A    between atoms: _570  and  _571
REMARK  233  A    between atoms: _570  and  _573
REMARK  234  A    between atoms: _573  and  _574
REMARK  235  A    between atoms: _574  and  _575
REMARK  236  A    between atoms: _578  and  _580
REMARK  237  A    between atoms: _580  and  _581
REMARK  238  A    between atoms: _580  and  _583
REMARK  239  A    between atoms: _583  and  _584
REMARK  240  A    between atoms: _587  and  _589
REMARK  241  A    between atoms: _589  and  _590
REMARK  242  A    between atoms: _592  and  _594
REMARK  243  A    between atoms: _594  and  _595
REMARK  244  A    between atoms: _594  and  _597
REMARK  245  A    between atoms: _597  and  _598
REMARK  246  A    between atoms: _601  and  _603
REMARK  247  A    between atoms: _603  and  _604
REMARK  248  A    between atoms: _603  and  _606
REMARK  249  A    between atoms: _606  and  _607
REMARK  250  A    between atoms: _609  and  _611
REMARK  251  A    between atoms: _611  and  _612
REMARK  252  A    between atoms: _615  and  _617
REMARK  253  A    between atoms: _617  and  _618
REMARK  254  A    between atoms: _617  and  _620
REMARK  255  A    between atoms: _620  and  _621
REMARK  256  A    between atoms: _623  and  _625
REMARK  257  A    between atoms: _625  and  _626
REMARK                            x       y       z     vdW  Elec       q    Type
REMARK                         _______ _______ _______ _____ _____    ______ ____
ROOT
ATOM      1  CA  THR A   1      20.426  19.252   5.027  0.00  0.00    +0.160 C 
ENDROOT
BRANCH   1   2
ATOM      2  N   THR A   1      20.859  17.863   5.154  0.00  0.00    -0.237 NA
ATOM      3  H   THR A   1      20.735  17.207   4.356  0.00  0.00    +0.142 HD
ENDBRANCH   1   2
BRANCH   1   4
ATOM      4  C   THR A   1      18.912  19.360   4.845  0.00  0.00    +0.227 C 
ATOM      5  O   THR A   1      18.288  18.485   4.242  0.00  0.00    -0.287 OA
ENDBRANCH   1   4
BRANCH   1   6
ATOM      6  CB  THR A   1      21.057  19.954   3.791  0.00  0.00    +0.134 C 
ATOM      7  CG2 THR A   1      22.562  19.836   3.801  0.00  0.00    +0.034 C 
BRANCH   6   8
ATOM      8  OG1 THR A   1      20.557  19.347   2.593  0.00  0.00    -0.383 OA
ATOM      9  HG1 THR A   1      20.958  19.794   1.806  0.00  0.00    +0.210 HD
ENDBRANCH   6   8
ENDBRANCH   1   6
TORSDOF 4
REMARK  Name = ../refined-set-2016/4omc/4omc_pocket.pdb
REMARK  257 active torsions:
REMARK  status: ('A' for Active; 'I' for Inactive)
REMARK    1  A    between atoms: _1  and  _3
REMARK    2  A    between atoms: _3  and  _4
REMARK    3  A    between atoms: _3  and  _6
REMARK    4  A    between atoms: _6  and  _7
REMARK    5  A    between atoms: _10  and  _12
REMARK    6  A    between atoms: _12  and  _13
REMARK    7  A    between atoms: _12  and  _15
REMARK    8  A    between atoms: _15  and  _16
REMARK    9  A    between atoms: _19  and  _21
REMARK   10  A    between atoms: _21  and  _22
REMARK   11  A    between atoms: _24  and  _26
REMARK   12  A    between atoms: _26  and  _27
REMARK   13  A    between atoms: _26  and  _29
REMARK   14  A    between atoms: _29  and  _30
REMARK   15  A    between atoms: _35  and  _37
REMARK   16  A    between atoms: _37  and  _38
REMARK   17  A    between atoms: _37  and  _40
REMARK   18  A    between atoms: _40  and  _41
REMARK   19  A    between atoms: _41  and  _42
REMARK   20  A    between atoms: _42  and  _43
REMARK   21  A    between atoms: _52  and  _54
REMARK   22  A    between atoms: _54  and  _55
REMARK   23  A    between atoms: _54  and  _57
REMARK   24  A    between atoms: _57  and  _58
REMARK   25  A    between atoms: _61  and  _63
REMARK   26  A    between atoms: _63  and  _64
REMARK   27  A    between atoms: _63  and  _66
REMARK   28  A    between atoms: _66  and  _67
REMARK   29  A    between atoms: _72  and  _74
REMARK   30  A    between atoms: _74  and  _75
REMARK   31  A    between atoms: _74  and  _77
REMARK   32  A    between atoms: _77  and  _78
REMARK   33  A    between atoms: _81  and  _83
REMARK   34  A    between atoms: _83  and  _84
REMARK   35  A    between atoms: _83  and  _86
REMARK   36  A    between atoms: _86  and  _87
REMARK   37  A    between atoms: _92  and  _94
REMARK   38  A    between atoms: _94  and  _95
REMARK   39  A    between atoms: _94  and  _97
REMARK   40  A    between atoms: _97  and  _98
REMARK   41  A    between atoms: _98  and  _99
REMARK   42  A    between atoms: _99  and  _100
REMARK   43  A    between atoms: _109  and  _111
REMARK   44  A    between atoms: _111  and  _112
REMARK   45  A    between atoms: _111  and  _114
REMARK   46  A    between atoms: _114  and  _115
REMARK   47  A    between atoms: _120  and  _122
REMARK   48  A    between atoms: _122  and  _123
REMARK   49  A    between atoms: _125  and  _127
REMARK   50  A    between atoms: _127  and  _128
REMARK   51  A    between atoms: _127  and  _130
REMARK   52  A    between atoms: _130  and  _131
REMARK   53  A    between atoms: _134  and  _136
REMARK   54  A    between atoms: _136  and  _137
REMARK   55  A    between atoms: _136  and  _139
REMARK   56  A    between atoms: _141  and  _143
REMARK   57  A    between atoms: _143  and  _144
REMARK   58  A    between atoms: _143  and  _146
REMARK   59  A    between atoms: _146  and  _147
REMARK   60  A    between atoms: _147  and  _148
REMARK   61  A    between atoms: _148  and  _149
REMARK   62  A    between atoms: _158  and  _160
REMARK   63  A    between atoms: _160  and  _161
REMARK   64  A    between atoms: _160  and  _163
REMARK   65  A    between atoms: _163  and  _164
REMARK   66  A    between atoms: _164  and  _165
REMARK   67  A    between atoms: _167  and  _169
REMARK   68  A    between atoms: _169  and  _170
REMARK   69  A    between atoms: _169  and  _172
REMARK   70  A    between atoms: _172  and  _173
REMARK   71  A    between atoms: _176  and  _178
REMARK   72  A    between atoms: _178  and  _179
REMARK   73  A    between atoms: _178  and  _181
REMARK   74  A    between atoms: _181  and  _182
REMARK   75  A    between atoms: _185  and  _187
REMARK   76  A    between atoms: _187  and  _188
REMARK   77  A    between atoms: _190  and  _192
REMARK   78  A    between atoms: _192  and  _193
REMARK   79  A    between atoms: _192  and  _195
REMARK   80  A    between atoms: _195  and  _196
REMARK   81  A    between atoms: _196  and  _197
REMARK   82  A    between atoms: _200  and  _202
REMARK   83  A    between atoms: _202  and  _203
REMARK   84  A    between atoms: _202  and  _205
REMARK   85  A    between atoms: _208  and  _210
REMARK   86  A    between atoms: _210  and  _211
REMARK   87  A    between atoms: _210  and  _213
REMARK   88  A    between atoms: _213  and  _214
REMARK   89  A    between atoms: _217  and  _219
REMARK   90  A    between atoms: _219  and  _220
REMARK   91  A    between atoms: _219  and  _222
REMARK   92  A    between atoms: _222  and  _223
REMARK   93  A    between atoms: _226  and  _228
REMARK   94  A    between atoms: _228  and  _229
REMARK   95  A    between atoms: _232  and  _234
REMARK   96  A    between atoms: _234  and  _235
REMARK   97  A    between atoms: _234  and  _237
REMARK   98  A    between atoms: _240  and  _242
REMARK   99  A    between atoms: _242  and  _243
REMARK  100  A    between atoms: _242  and  _245
REMARK  101  A    between atoms: _245  and  _246
REMARK  102  A    between atoms: _246  and  _247
REMARK  103  A    between atoms: _250  and  _252
REMARK  104  A    between atoms: _252  and  _253
REMARK  105  A    between atoms: _256  and  _258
REMARK  106  A    between atoms: _258  and  _259
REMARK  107  A    between atoms: _262  and  _264
REMARK  108  A    between atoms: _264  and  _265
REMARK  109  A    between atoms: _264  and  _267
REMARK  110  A    between atoms: _267  and  _268
REMARK  111  A    between atoms: _270  and  _272
REMARK  112  A    between atoms: _272  and  _273
REMARK  113  A    between atoms: _272  and  _275
REMARK  114  A    between atoms: _275  and  _276
REMARK  115  A    between atoms: _286  and  _288
REMARK  116  A    between atoms: _288  and  _289
REMARK  117  A    between atoms: _292  and  _293
REMARK  118  A    between atoms: _298  and  _300
REMARK  119  A    between atoms: _300  and  _301
REMARK  120  A    between atoms: _300  and  _303
REMARK  121  A    between atoms: _303  and  _304
REMARK  122  A    between atoms: _304  and  _305
REMARK  123  A    between atoms: _308  and  _310
REMARK  124  A    between atoms: _310  and  _311
REMARK  125  A    between atoms: _310  and  _313
REMARK  126  A    between atoms: _313  and  _314
REMARK  127  A    between atoms: _314  and  _315
REMARK  128  A    between atoms: _315  and  CA_629
REMARK  129  A    between atoms: _317  and  _319
REMARK  130  A    between atoms: _319  and  _320
REMARK  131  A    between atoms: _319  and  _322
REMARK  132  A    between atoms: _322  and  _323
REMARK  133  A    between atoms: _326  and  _328
REMARK  134  A    between atoms: _328  and  _329
REMARK  135  A    between atoms: _328  and  _331
REMARK  136  A    between atoms: _331  and  _332
REMARK  137  A    between atoms: _335  and  _337
REMARK  138  A    between atoms: _337  and  _338
REMARK  139  A    between atoms: _337  and  _340
REMARK  140  A    between atoms: _343  and  _345
REMARK  141  A    between atoms: _345  and  _346
REMARK  142  A    between atoms: _345  and  _348
REMARK  143  A    between atoms: _348  and  _349
REMARK  144  A    between atoms: _352  and  _354
REMARK  145  A    between atoms: _354  and  _355
REMARK  146  A    between atoms: _358  and  _359
REMARK  147  A    between atoms: _364  and  _366
REMARK  148  A    between atoms: _366  and  _367
REMARK  149  A    between atoms: _370  and  _372
REMARK  150  A    between atoms: _372  and  _373
REMARK  151  A    between atoms: _372  and  _375
REMARK  152  A    between atoms: _375  and  _376
REMARK  153  A    between atoms: _376  and  _377
REMARK  154  A    between atoms: _377  and  _378
REMARK  155  A    between atoms: _387  and  _389
REMARK  156  A    between atoms: _389  and  _390
REMARK  157  A    between atoms: _389  and  _392
REMARK  158  A    between atoms: _392  and  _393
REMARK  159  A    between atoms: _396  and  _398
REMARK  160  A    between atoms: _398  and  _399
REMARK  161  A    between atoms: _402  and  _404
REMARK  162  A    between atoms: _404  and  _405
REMARK  163  A    between atoms: _404  and  _407
REMARK  164  A    between atoms: _407  and  _408
REMARK  165  A    between atoms: _408  and  _409
REMARK  166  A    between atoms: _412  and  _414
REMARK  167  A    between atoms: _414  and  _415
REMARK  168  A    between atoms: _414  and  _417
REMARK  169  A    between atoms: _417  and  _418
REMARK  170  A    between atoms: _428  and  _430
REMARK  171  A    between atoms: _430  and  _431
REMARK  172  A    between atoms: _434  and  _436
REMARK  173  A    between atoms: _436  and  _437
REMARK  174  A    between atoms: _436  and  _439
REMARK  175  A    between atoms: _439  and  _440
REMARK  176  A    between atoms: _442  and  _444
REMARK  177  A    between atoms: _444  and  _445
REMARK  178  A    between atoms: _447  and  _449
REMARK  179  A    between atoms: _449  and  _450
REMARK  180  A    between atoms: _449  and  _452
REMARK  181  A    between atoms: _452  and  _453
REMARK  182  A    between atoms: _458  and  _460
REMARK  183  A    between atoms: _460  and  _461
REMARK  184  A    between atoms: _463  and  _465
REMARK  185  A    between atoms: _465  and  _466
REMARK  186  A    between atoms: _465  and  _468
REMARK  187  A    between atoms: _468  and  _469
REMARK  188  A    between atoms: _469  and  _471
REMARK  189  A    between atoms: _471  and  CA_629
REMARK  190  A    between atoms: _472  and  _474
REMARK  191  A    between atoms: _474  and  _475
REMARK  192  A    between atoms: _474  and  _477
REMARK  193  A    between atoms: _477  and  _478
REMARK  194  A    between atoms: _480  and  _482
REMARK  195  A    between atoms: _482  and  _483
REMARK  196  A    between atoms: _482  and  _485
REMARK  197  A    between atoms: _487  and  _489
REMARK  198  A    between atoms: _489  and  _490
REMARK  199  A    between atoms: _489  and  _492
REMARK  200  A    between atoms: _494  and  _496
REMARK  201  A    between atoms: _496  and  _497
REMARK  202  A    between atoms: _496  and  _499
REMARK  203  A    between atoms: _499  and  _500
REMARK  204  A    between atoms: _503  and  _505
REMARK  205  A    between atoms: _505  and  _506
REMARK  206  A    between atoms: _508  and  _510
REMARK  207  A    between atoms: _510  and  _511
REMARK  208  A    between atoms: _510  and  _513
REMARK  209  A    between atoms: _513  and  _514
REMARK  210  A    between atoms: _519  and  _520
REMARK  211  A    between atoms: _522  and  _524
REMARK  212  A    between atoms: _524  and  _525
REMARK  213  A    between atoms: _524  and  _527
REMARK  214  A    between atoms: _527  and  _528
REMARK  215  A    between atoms: _531  and  _533
REMARK  216  A    between atoms: _533  and  _534
REMARK  217  A    between atoms: _533  and  _536
REMARK  218  A    between atoms: _536  and  _537
REMARK  219  A    between atoms: _542  and  _544
REMARK  220  A    between atoms: _544  and  _545
REMARK  221  A    between atoms: _544  and  _547
REMARK  222  A    between atoms: _547  and  _548
REMARK  223  A    between atoms: _551  and  _553
REMARK  224  A    between atoms: _553  and  _554
REMARK  225  A    between atoms: _553  and  _556
REMARK  226  A    between atoms: _556  and  _557
REMARK  227  A    between atoms: _559  and  _561
REMARK  228  A    between atoms: _561  and  _562
REMARK  229  A    between atoms: _561  and  _564
REMARK  230  A    between atoms: _564  and  _565
REMARK  231  A    between atoms: _568  and  _570
REMARK  232  A    between atoms: _570  and  _571
REMARK  233  A    between atoms: _570  and  _573
REMARK  234  A    between atoms: _573  and  _574
REMARK  235  A    between atoms: _574  and  _575
REMARK  236  A    between atoms: _578  and  _580
REMARK  237  A    between atoms: _580  and  _581
REMARK  238  A    between atoms: _580  and  _583
REMARK  239  A    between atoms: _583  and  _584
REMARK  240  A    between atoms: _587  and  _589
REMARK  241  A    between atoms: _589  and  _590
REMARK  242  A    between atoms: _592  and  _594
REMARK  243  A    between atoms: _594  and  _595
REMARK  244  A    between atoms: _594  and  _597
REMARK  245  A    between atoms: _597  and  _598
REMARK  246  A    between atoms: _601  and  _603
REMARK  247  A    between atoms: _603  and  _604
REMARK  248  A    between atoms: _603  and  _606
REMARK  249  A    between atoms: _606  and  _607
REMARK  250  A    between atoms: _609  and  _611
REMARK  251  A    between atoms: _611  and  _612
REMARK  252  A    between atoms: _615  and  _617
REMARK  253  A    between atoms: _617  and  _618
REMARK  254  A    between atoms: _617  and  _620
REMARK  255  A    between atoms: _620  and  _621
REMARK  256  A    between atoms: _623  and  _625
REMARK  257  A    between atoms: _625  and  _626
REMARK                            x       y       z     vdW  Elec       q    Type
REMARK                         _______ _______ _______ _____ _____    ______ ____
ROOT
ATOM      1  C   SER A   1      15.107  22.641   1.648  0.00  0.00    +0.241 C 
ATOM      2  O   SER A   1      14.042  22.058   1.808  0.00  0.00    -0.274 OA
ATOM      3  N   ILE A   2      15.185  23.946   1.438  0.00  0.00    -0.298 N 
ATOM      4  H   ILE A   2      16.116  24.365   1.241  0.00  0.00    +0.150 HD
ENDROOT
BRANCH   1   5
ATOM      5  CA  SER A   1      16.431  21.878   1.650  0.00  0.00    +0.174 C 
BRANCH   5   6
ATOM      6  N   SER A   1      16.492  21.067   2.848  0.00  0.00    -0.236 NA
ATOM      7  H   SER A   1      16.246  20.058   2.803  0.00  0.00    +0.142 HD
ENDBRANCH   5   6
BRANCH   5   8
ATOM      8  CB  SER A   1      16.552  20.988   0.417  0.00  0.00    +0.163 C 
BRANCH   8   9
ATOM      9  OG  SER A   1      16.646  21.787  -0.748  0.00  0.00    -0.380 OA
ATOM     10  H   SER A   1      16.724  21.202  -1.543  0.00  0.00    +0.211 HD
ENDBRANCH   8   9
ENDBRANCH   5   8
ENDBRANCH   1   5
BRANCH   3  11
ATOM     11  CA  ILE A   2      14.016  24.820   1.472  0.00  0.00    +0.137 C 
BRANCH  11  12
ATOM     12  CB  ILE A   2      14.218  25.912   2.552  0.00  0.00    +0.026 C 
ATOM     13  CG2 ILE A   2      12.977  26.819   2.632  0.00  0.00    +0.002 C 
BRANCH  12  14
ATOM     14  CG1 ILE A   2      14.551  25.256   3.901  0.00  0.00    +0.002 C 
ATOM     15  CD1 ILE A   2      13.412  24.395   4.479  0.00  0.00    +0.000 C 
ENDBRANCH  12  14
ENDBRANCH  11  12
BRANCH  11  16
ATOM     16  C   ILE A   2      13.727  25.528   0.153  0.00  0.00    +0.227 C 
ATOM     17  O   ILE A   2      14.620  26.149  -0.428  0.00  0.00    -0.286 OA
ENDBRANCH  11  16
ENDBRANCH   3  11
TORSDOF 8
REMARK  Name = ../refined-set-2016/4omc/4omc_pocket.pdb
REMARK  257 active torsions:
REMARK  status: ('A' for Active; 'I' for Inactive)
REMARK    1  A    between atoms: _1  and  _3
REMARK    2  A    between atoms: _3  and  _4
REMARK    3  A    between atoms: _3  and  _6
REMARK    4  A    between atoms: _6  and  _7
REMARK    5  A    between atoms: _10  and  _12
REMARK    6  A    between atoms: _12  and  _13
REMARK    7  A    between atoms: _12  and  _15
REMARK    8  A    between atoms: _15  and  _16
REMARK    9  A    between atoms: _19  and  _21
REMARK   10  A    between atoms: _21  and  _22
REMARK   11  A    between atoms: _24  and  _26
REMARK   12  A    between atoms: _26  and  _27
REMARK   13  A    between atoms: _26  and  _29
REMARK   14  A    between atoms: _29  and  _30
REMARK   15  A    between atoms: _35  and  _37
REMARK   16  A    between atoms: _37  and  _38
REMARK   17  A    between atoms: _37  and  _40
REMARK   18  A    between atoms: _40  and  _41
REMARK   19  A    between atoms: _41  and  _42
REMARK   20  A    between atoms: _42  and  _43
REMARK   21  A    between atoms: _52  and  _54
REMARK   22  A    between atoms: _54  and  _55
REMARK   23  A    between atoms: _54  and  _57
REMARK   24  A    between atoms: _57  and  _58
REMARK   25  A    between atoms: _61  and  _63
REMARK   26  A    between atoms: _63  and  _64
REMARK   27  A    between atoms: _63  and  _66
REMARK   28  A    between atoms: _66  and  _67
REMARK   29  A    between atoms: _72  and  _74
REMARK   30  A    between atoms: _74  and  _75
REMARK   31  A    between atoms: _74  and  _77
REMARK   32  A    between atoms: _77  and  _78
REMARK   33  A    between atoms: _81  and  _83
REMARK   34  A    between atoms: _83  and  _84
REMARK   35  A    between atoms: _83  and  _86
REMARK   36  A    between atoms: _86  and  _87
REMARK   37  A    between atoms: _92  and  _94
REMARK   38  A    between atoms: _94  and  _95
REMARK   39  A    between atoms: _94  and  _97
REMARK   40  A    between atoms: _97  and  _98
REMARK   41  A    between atoms: _98  and  _99
REMARK   42  A    between atoms: _99  and  _100
REMARK   43  A    between atoms: _109  and  _111
REMARK   44  A    between atoms: _111  and  _112
REMARK   45  A    between atoms: _111  and  _114
REMARK   46  A    between atoms: _114  and  _115
REMARK   47  A    between atoms: _120  and  _122
REMARK   48  A    between atoms: _122  and  _123
REMARK   49  A    between atoms: _125  and  _127
REMARK   50  A    between atoms: _127  and  _128
REMARK   51  A    between atoms: _127  and  _130
REMARK   52  A    between atoms: _130  and  _131
REMARK   53  A    between atoms: _134  and  _136
REMARK   54  A    between atoms: _136  and  _137
REMARK   55  A    between atoms: _136  and  _139
REMARK   56  A    between atoms: _141  and  _143
REMARK   57  A    between atoms: _143  and  _144
REMARK   58  A    between atoms: _143  and  _146
REMARK   59  A    between atoms: _146  and  _147
REMARK   60  A    between atoms: _147  and  _148
REMARK   61  A    between atoms: _148  and  _149
REMARK   62  A    between atoms: _158  and  _160
REMARK   63  A    between atoms: _160  and  _161
REMARK   64  A    between atoms: _160  and  _163
REMARK   65  A    between atoms: _163  and  _164
REMARK   66  A    between atoms: _164  and  _165
REMARK   67  A    between atoms: _167  and  _169
REMARK   68  A    between atoms: _169  and  _170
REMARK   69  A    between atoms: _169  and  _172
REMARK   70  A    between atoms: _172  and  _173
REMARK   71  A    between atoms: _176  and  _178
REMARK   72  A    between atoms: _178  and  _179
REMARK   73  A    between atoms: _178  and  _181
REMARK   74  A    between atoms: _181  and  _182
REMARK   75  A    between atoms: _185  and  _187
REMARK   76  A    between atoms: _187  and  _188
REMARK   77  A    between atoms: _190  and  _192
REMARK   78  A    between atoms: _192  and  _193
REMARK   79  A    between atoms: _192  and  _195
REMARK   80  A    between atoms: _195  and  _196
REMARK   81  A    between atoms: _196  and  _197
REMARK   82  A    between atoms: _200  and  _202
REMARK   83  A    between atoms: _202  and  _203
REMARK   84  A    between atoms: _202  and  _205
REMARK   85  A    between atoms: _208  and  _210
REMARK   86  A    between atoms: _210  and  _211
REMARK   87  A    between atoms: _210  and  _213
REMARK   88  A    between atoms: _213  and  _214
REMARK   89  A    between atoms: _217  and  _219
REMARK   90  A    between atoms: _219  and  _220
REMARK   91  A    between atoms: _219  and  _222
REMARK   92  A    between atoms: _222  and  _223
REMARK   93  A    between atoms: _226  and  _228
REMARK   94  A    between atoms: _228  and  _229
REMARK   95  A    between atoms: _232  and  _234
REMARK   96  A    between atoms: _234  and  _235
REMARK   97  A    between atoms: _234  and  _237
REMARK   98  A    between atoms: _240  and  _242
REMARK   99  A    between atoms: _242  and  _243
REMARK  100  A    between atoms: _242  and  _245
REMARK  101  A    between atoms: _245  and  _246
REMARK  102  A    between atoms: _246  and  _247
REMARK  103  A    between atoms: _250  and  _252
REMARK  104  A    between atoms: _252  and  _253
REMARK  105  A    between atoms: _256  and  _258
REMARK  106  A    between atoms: _258  and  _259
REMARK  107  A    between atoms: _262  and  _264
REMARK  108  A    between atoms: _264  and  _265
REMARK  109  A    between atoms: _264  and  _267
REMARK  110  A    between atoms: _267  and  _268
REMARK  111  A    between atoms: _270  and  _272
REMARK  112  A    between atoms: _272  and  _273
REMARK  113  A    between atoms: _272  and  _275
REMARK  114  A    between atoms: _275  and  _276
REMARK  115  A    between atoms: _286  and  _288
REMARK  116  A    between atoms: _288  and  _289
REMARK  117  A    between atoms: _292  and  _293
REMARK  118  A    between atoms: _298  and  _300
REMARK  119  A    between atoms: _300  and  _301
REMARK  120  A    between atoms: _300  and  _303
REMARK  121  A    between atoms: _303  and  _304
REMARK  122  A    between atoms: _304  and  _305
REMARK  123  A    between atoms: _308  and  _310
REMARK  124  A    between atoms: _310  and  _311
REMARK  125  A    between atoms: _310  and  _313
REMARK  126  A    between atoms: _313  and  _314
REMARK  127  A    between atoms: _314  and  _315
REMARK  128  A    between atoms: _315  and  CA_629
REMARK  129  A    between atoms: _317  and  _319
REMARK  130  A    between atoms: _319  and  _320
REMARK  131  A    between atoms: _319  and  _322
REMARK  132  A    between atoms: _322  and  _323
REMARK  133  A    between atoms: _326  and  _328
REMARK  134  A    between atoms: _328  and  _329
REMARK  135  A    between atoms: _328  and  _331
REMARK  136  A    between atoms: _331  and  _332
REMARK  137  A    between atoms: _335  and  _337
REMARK  138  A    between atoms: _337  and  _338
REMARK  139  A    between atoms: _337  and  _340
REMARK  140  A    between atoms: _343  and  _345
REMARK  141  A    between atoms: _345  and  _346
REMARK  142  A    between atoms: _345  and  _348
REMARK  143  A    between atoms: _348  and  _349
REMARK  144  A    between atoms: _352  and  _354
REMARK  145  A    between atoms: _354  and  _355
REMARK  146  A    between atoms: _358  and  _359
REMARK  147  A    between atoms: _364  and  _366
REMARK  148  A    between atoms: _366  and  _367
REMARK  149  A    between atoms: _370  and  _372
REMARK  150  A    between atoms: _372  and  _373
REMARK  151  A    between atoms: _372  and  _375
REMARK  152  A    between atoms: _375  and  _376
REMARK  153  A    between atoms: _376  and  _377
REMARK  154  A    between atoms: _377  and  _378
REMARK  155  A    between atoms: _387  and  _389
REMARK  156  A    between atoms: _389  and  _390
REMARK  157  A    between atoms: _389  and  _392
REMARK  158  A    between atoms: _392  and  _393
REMARK  159  A    between atoms: _396  and  _398
REMARK  160  A    between atoms: _398  and  _399
REMARK  161  A    between atoms: _402  and  _404
REMARK  162  A    between atoms: _404  and  _405
REMARK  163  A    between atoms: _404  and  _407
REMARK  164  A    between atoms: _407  and  _408
REMARK  165  A    between atoms: _408  and  _409
REMARK  166  A    between atoms: _412  and  _414
REMARK  167  A    between atoms: _414  and  _415
REMARK  168  A    between atoms: _414  and  _417
REMARK  169  A    between atoms: _417  and  _418
REMARK  170  A    between atoms: _428  and  _430
REMARK  171  A    between atoms: _430  and  _431
REMARK  172  A    between atoms: _434  and  _436
REMARK  173  A    between atoms: _436  and  _437
REMARK  174  A    between atoms: _436  and  _439
REMARK  175  A    between atoms: _439  and  _440
REMARK  176  A    between atoms: _442  and  _444
REMARK  177  A    between atoms: _444  and  _445
REMARK  178  A    between atoms: _447  and  _449
REMARK  179  A    between atoms: _449  and  _450
REMARK  180  A    between atoms: _449  and  _452
REMARK  181  A    between atoms: _452  and  _453
REMARK  182  A    between atoms: _458  and  _460
REMARK  183  A    between atoms: _460  and  _461
REMARK  184  A    between atoms: _463  and  _465
REMARK  185  A    between atoms: _465  and  _466
REMARK  186  A    between atoms: _465  and  _468
REMARK  187  A    between atoms: _468  and  _469
REMARK  188  A    between atoms: _469  and  _471
REMARK  189  A    between atoms: _471  and  CA_629
REMARK  190  A    between atoms: _472  and  _474
REMARK  191  A    between atoms: _474  and  _475
REMARK  192  A    between atoms: _474  and  _477
REMARK  193  A    between atoms: _477  and  _478
REMARK  194  A    between atoms: _480  and  _482
REMARK  195  A    between atoms: _482  and  _483
REMARK  196  A    between atoms: _482  and  _485
REMARK  197  A    between atoms: _487  and  _489
REMARK  198  A    between atoms: _489  and  _490
REMARK  199  A    between atoms: _489  and  _492
REMARK  200  A    between atoms: _494  and  _496
REMARK  201  A    between atoms: _496  and  _497
REMARK  202  A    between atoms: _496  and  _499
REMARK  203  A    between atoms: _499  and  _500
REMARK  204  A    between atoms: _503  and  _505
REMARK  205  A    between atoms: _505  and  _506
REMARK  206  A    between atoms: _508  and  _510
REMARK  207  A    between atoms: _510  and  _511
REMARK  208  A    between atoms: _510  and  _513
REMARK  209  A    between atoms: _513  and  _514
REMARK  210  A    between atoms: _519  and  _520
REMARK  211  A    between atoms: _522  and  _524
REMARK  212  A    between atoms: _524  and  _525
REMARK  213  A    between atoms: _524  and  _527
REMARK  214  A    between atoms: _527  and  _528
REMARK  215  A    between atoms: _531  and  _533
REMARK  216  A    between atoms: _533  and  _534
REMARK  217  A    between atoms: _533  and  _536
REMARK  218  A    between atoms: _536  and  _537
REMARK  219  A    between atoms: _542  and  _544
REMARK  220  A    between atoms: _544  and  _545
REMARK  221  A    between atoms: _544  and  _547
REMARK  222  A    between atoms: _547  and  _548
REMARK  223  A    between atoms: _551  and  _553
REMARK  224  A    between atoms: _553  and  _554
REMARK  225  A    between atoms: _553  and  _556
REMARK  226  A    between atoms: _556  and  _557
REMARK  227  A    between atoms: _559  and  _561
REMARK  228  A    between atoms: _561  and  _562
REMARK  229  A    between atoms: _561  and  _564
REMARK  230  A    between atoms: _564  and  _565
REMARK  231  A    between atoms: _568  and  _570
REMARK  232  A    between atoms: _570  and  _571
REMARK  233  A    between atoms: _570  and  _573
REMARK  234  A    between atoms: _573  and  _574
REMARK  235  A    between atoms: _574  and  _575
REMARK  236  A    between atoms: _578  and  _580
REMARK  237  A    between atoms: _580  and  _581
REMARK  238  A    between atoms: _580  and  _583
REMARK  239  A    between atoms: _583  and  _584
REMARK  240  A    between atoms: _587  and  _589
REMARK  241  A    between atoms: _589  and  _590
REMARK  242  A    between atoms: _592  and  _594
REMARK  243  A    between atoms: _594  and  _595
REMARK  244  A    between atoms: _594  and  _597
REMARK  245  A    between atoms: _597  and  _598
REMARK  246  A    between atoms: _601  and  _603
REMARK  247  A    between atoms: _603  and  _604
REMARK  248  A    between atoms: _603  and  _606
REMARK  249  A    between atoms: _606  and  _607
REMARK  250  A    between atoms: _609  and  _611
REMARK  251  A    between atoms: _611  and  _612
REMARK  252  A    between atoms: _615  and  _617
REMARK  253  A    between atoms: _617  and  _618
REMARK  254  A    between atoms: _617  and  _620
REMARK  255  A    between atoms: _620  and  _621
REMARK  256  A    between atoms: _623  and  _625
REMARK  257  A    between atoms: _625  and  _626
REMARK                            x       y       z     vdW  Elec       q    Type
REMARK                         _______ _______ _______ _____ _____    ______ ____
ROOT
ATOM      1  CA  GLU A   1      13.604  24.191  -8.920  0.00  0.00    +0.134 C 
ENDROOT
BRANCH   1   2
ATOM      2  N   GLU A   1      13.200  25.499  -8.378  0.00  0.00    -0.239 NA
ATOM      3  H   GLU A   1      13.465  25.743  -7.402  0.00  0.00    +0.142 HD
ENDBRANCH   1   2
BRANCH   1   4
ATOM      4  C   GLU A   1      12.771  23.132  -8.205  0.00  0.00    +0.224 C 
ATOM      5  O   GLU A   1      12.640  23.162  -6.976  0.00  0.00    -0.287 OA
ENDBRANCH   1   4
BRANCH   1   6
ATOM      6  CB  GLU A   1      15.089  23.886  -8.661  0.00  0.00    +0.037 C 
BRANCH   6   7
ATOM      7  CG  GLU A   1      16.045  24.905  -9.232  0.00  0.00    +0.116 C 
BRANCH   7   8
ATOM      8  CD  GLU A   1      17.499  24.458  -9.157  0.00  0.00    +0.365 C 
ATOM      9  OE2 GLU A   1      17.756  23.231  -9.114  0.00  0.00    -0.246 OA
ATOM     10  OE1 GLU A   1      18.384  25.337  -9.159  0.00  0.00    -0.246 OA
ENDBRANCH   7   8
ENDBRANCH   6   7
ENDBRANCH   1   6
TORSDOF 5
REMARK  Name = ../refined-set-2016/4omc/4omc_pocket.pdb
REMARK  257 active torsions:
REMARK  status: ('A' for Active; 'I' for Inactive)
REMARK    1  A    between atoms: _1  and  _3
REMARK    2  A    between atoms: _3  and  _4
REMARK    3  A    between atoms: _3  and  _6
REMARK    4  A    between atoms: _6  and  _7
REMARK    5  A    between atoms: _10  and  _12
REMARK    6  A    between atoms: _12  and  _13
REMARK    7  A    between atoms: _12  and  _15
REMARK    8  A    between atoms: _15  and  _16
REMARK    9  A    between atoms: _19  and  _21
REMARK   10  A    between atoms: _21  and  _22
REMARK   11  A    between atoms: _24  and  _26
REMARK   12  A    between atoms: _26  and  _27
REMARK   13  A    between atoms: _26  and  _29
REMARK   14  A    between atoms: _29  and  _30
REMARK   15  A    between atoms: _35  and  _37
REMARK   16  A    between atoms: _37  and  _38
REMARK   17  A    between atoms: _37  and  _40
REMARK   18  A    between atoms: _40  and  _41
REMARK   19  A    between atoms: _41  and  _42
REMARK   20  A    between atoms: _42  and  _43
REMARK   21  A    between atoms: _52  and  _54
REMARK   22  A    between atoms: _54  and  _55
REMARK   23  A    between atoms: _54  and  _57
REMARK   24  A    between atoms: _57  and  _58
REMARK   25  A    between atoms: _61  and  _63
REMARK   26  A    between atoms: _63  and  _64
REMARK   27  A    between atoms: _63  and  _66
REMARK   28  A    between atoms: _66  and  _67
REMARK   29  A    between atoms: _72  and  _74
REMARK   30  A    between atoms: _74  and  _75
REMARK   31  A    between atoms: _74  and  _77
REMARK   32  A    between atoms: _77  and  _78
REMARK   33  A    between atoms: _81  and  _83
REMARK   34  A    between atoms: _83  and  _84
REMARK   35  A    between atoms: _83  and  _86
REMARK   36  A    between atoms: _86  and  _87
REMARK   37  A    between atoms: _92  and  _94
REMARK   38  A    between atoms: _94  and  _95
REMARK   39  A    between atoms: _94  and  _97
REMARK   40  A    between atoms: _97  and  _98
REMARK   41  A    between atoms: _98  and  _99
REMARK   42  A    between atoms: _99  and  _100
REMARK   43  A    between atoms: _109  and  _111
REMARK   44  A    between atoms: _111  and  _112
REMARK   45  A    between atoms: _111  and  _114
REMARK   46  A    between atoms: _114  and  _115
REMARK   47  A    between atoms: _120  and  _122
REMARK   48  A    between atoms: _122  and  _123
REMARK   49  A    between atoms: _125  and  _127
REMARK   50  A    between atoms: _127  and  _128
REMARK   51  A    between atoms: _127  and  _130
REMARK   52  A    between atoms: _130  and  _131
REMARK   53  A    between atoms: _134  and  _136
REMARK   54  A    between atoms: _136  and  _137
REMARK   55  A    between atoms: _136  and  _139
REMARK   56  A    between atoms: _141  and  _143
REMARK   57  A    between atoms: _143  and  _144
REMARK   58  A    between atoms: _143  and  _146
REMARK   59  A    between atoms: _146  and  _147
REMARK   60  A    between atoms: _147  and  _148
REMARK   61  A    between atoms: _148  and  _149
REMARK   62  A    between atoms: _158  and  _160
REMARK   63  A    between atoms: _160  and  _161
REMARK   64  A    between atoms: _160  and  _163
REMARK   65  A    between atoms: _163  and  _164
REMARK   66  A    between atoms: _164  and  _165
REMARK   67  A    between atoms: _167  and  _169
REMARK   68  A    between atoms: _169  and  _170
REMARK   69  A    between atoms: _169  and  _172
REMARK   70  A    between atoms: _172  and  _173
REMARK   71  A    between atoms: _176  and  _178
REMARK   72  A    between atoms: _178  and  _179
REMARK   73  A    between atoms: _178  and  _181
REMARK   74  A    between atoms: _181  and  _182
REMARK   75  A    between atoms: _185  and  _187
REMARK   76  A    between atoms: _187  and  _188
REMARK   77  A    between atoms: _190  and  _192
REMARK   78  A    between atoms: _192  and  _193
REMARK   79  A    between atoms: _192  and  _195
REMARK   80  A    between atoms: _195  and  _196
REMARK   81  A    between atoms: _196  and  _197
REMARK   82  A    between atoms: _200  and  _202
REMARK   83  A    between atoms: _202  and  _203
REMARK   84  A    between atoms: _202  and  _205
REMARK   85  A    between atoms: _208  and  _210
REMARK   86  A    between atoms: _210  and  _211
REMARK   87  A    between atoms: _210  and  _213
REMARK   88  A    between atoms: _213  and  _214
REMARK   89  A    between atoms: _217  and  _219
REMARK   90  A    between atoms: _219  and  _220
REMARK   91  A    between atoms: _219  and  _222
REMARK   92  A    between atoms: _222  and  _223
REMARK   93  A    between atoms: _226  and  _228
REMARK   94  A    between atoms: _228  and  _229
REMARK   95  A    between atoms: _232  and  _234
REMARK   96  A    between atoms: _234  and  _235
REMARK   97  A    between atoms: _234  and  _237
REMARK   98  A    between atoms: _240  and  _242
REMARK   99  A    between atoms: _242  and  _243
REMARK  100  A    between atoms: _242  and  _245
REMARK  101  A    between atoms: _245  and  _246
REMARK  102  A    between atoms: _246  and  _247
REMARK  103  A    between atoms: _250  and  _252
REMARK  104  A    between atoms: _252  and  _253
REMARK  105  A    between atoms: _256  and  _258
REMARK  106  A    between atoms: _258  and  _259
REMARK  107  A    between atoms: _262  and  _264
REMARK  108  A    between atoms: _264  and  _265
REMARK  109  A    between atoms: _264  and  _267
REMARK  110  A    between atoms: _267  and  _268
REMARK  111  A    between atoms: _270  and  _272
REMARK  112  A    between atoms: _272  and  _273
REMARK  113  A    between atoms: _272  and  _275
REMARK  114  A    between atoms: _275  and  _276
REMARK  115  A    between atoms: _286  and  _288
REMARK  116  A    between atoms: _288  and  _289
REMARK  117  A    between atoms: _292  and  _293
REMARK  118  A    between atoms: _298  and  _300
REMARK  119  A    between atoms: _300  and  _301
REMARK  120  A    between atoms: _300  and  _303
REMARK  121  A    between atoms: _303  and  _304
REMARK  122  A    between atoms: _304  and  _305
REMARK  123  A    between atoms: _308  and  _310
REMARK  124  A    between atoms: _310  and  _311
REMARK  125  A    between atoms: _310  and  _313
REMARK  126  A    between atoms: _313  and  _314
REMARK  127  A    between atoms: _314  and  _315
REMARK  128  A    between atoms: _315  and  CA_629
REMARK  129  A    between atoms: _317  and  _319
REMARK  130  A    between atoms: _319  and  _320
REMARK  131  A    between atoms: _319  and  _322
REMARK  132  A    between atoms: _322  and  _323
REMARK  133  A    between atoms: _326  and  _328
REMARK  134  A    between atoms: _328  and  _329
REMARK  135  A    between atoms: _328  and  _331
REMARK  136  A    between atoms: _331  and  _332
REMARK  137  A    between atoms: _335  and  _337
REMARK  138  A    between atoms: _337  and  _338
REMARK  139  A    between atoms: _337  and  _340
REMARK  140  A    between atoms: _343  and  _345
REMARK  141  A    between atoms: _345  and  _346
REMARK  142  A    between atoms: _345  and  _348
REMARK  143  A    between atoms: _348  and  _349
REMARK  144  A    between atoms: _352  and  _354
REMARK  145  A    between atoms: _354  and  _355
REMARK  146  A    between atoms: _358  and  _359
REMARK  147  A    between atoms: _364  and  _366
REMARK  148  A    between atoms: _366  and  _367
REMARK  149  A    between atoms: _370  and  _372
REMARK  150  A    between atoms: _372  and  _373
REMARK  151  A    between atoms: _372  and  _375
REMARK  152  A    between atoms: _375  and  _376
REMARK  153  A    between atoms: _376  and  _377
REMARK  154  A    between atoms: _377  and  _378
REMARK  155  A    between atoms: _387  and  _389
REMARK  156  A    between atoms: _389  and  _390
REMARK  157  A    between atoms: _389  and  _392
REMARK  158  A    between atoms: _392  and  _393
REMARK  159  A    between atoms: _396  and  _398
REMARK  160  A    between atoms: _398  and  _399
REMARK  161  A    between atoms: _402  and  _404
REMARK  162  A    between atoms: _404  and  _405
REMARK  163  A    between atoms: _404  and  _407
REMARK  164  A    between atoms: _407  and  _408
REMARK  165  A    between atoms: _408  and  _409
REMARK  166  A    between atoms: _412  and  _414
REMARK  167  A    between atoms: _414  and  _415
REMARK  168  A    between atoms: _414  and  _417
REMARK  169  A    between atoms: _417  and  _418
REMARK  170  A    between atoms: _428  and  _430
REMARK  171  A    between atoms: _430  and  _431
REMARK  172  A    between atoms: _434  and  _436
REMARK  173  A    between atoms: _436  and  _437
REMARK  174  A    between atoms: _436  and  _439
REMARK  175  A    between atoms: _439  and  _440
REMARK  176  A    between atoms: _442  and  _444
REMARK  177  A    between atoms: _444  and  _445
REMARK  178  A    between atoms: _447  and  _449
REMARK  179  A    between atoms: _449  and  _450
REMARK  180  A    between atoms: _449  and  _452
REMARK  181  A    between atoms: _452  and  _453
REMARK  182  A    between atoms: _458  and  _460
REMARK  183  A    between atoms: _460  and  _461
REMARK  184  A    between atoms: _463  and  _465
REMARK  185  A    between atoms: _465  and  _466
REMARK  186  A    between atoms: _465  and  _468
REMARK  187  A    between atoms: _468  and  _469
REMARK  188  A    between atoms: _469  and  _471
REMARK  189  A    between atoms: _471  and  CA_629
REMARK  190  A    between atoms: _472  and  _474
REMARK  191  A    between atoms: _474  and  _475
REMARK  192  A    between atoms: _474  and  _477
REMARK  193  A    between atoms: _477  and  _478
REMARK  194  A    between atoms: _480  and  _482
REMARK  195  A    between atoms: _482  and  _483
REMARK  196  A    between atoms: _482  and  _485
REMARK  197  A    between atoms: _487  and  _489
REMARK  198  A    between atoms: _489  and  _490
REMARK  199  A    between atoms: _489  and  _492
REMARK  200  A    between atoms: _494  and  _496
REMARK  201  A    between atoms: _496  and  _497
REMARK  202  A    between atoms: _496  and  _499
REMARK  203  A    between atoms: _499  and  _500
REMARK  204  A    between atoms: _503  and  _505
REMARK  205  A    between atoms: _505  and  _506
REMARK  206  A    between atoms: _508  and  _510
REMARK  207  A    between atoms: _510  and  _511
REMARK  208  A    between atoms: _510  and  _513
REMARK  209  A    between atoms: _513  and  _514
REMARK  210  A    between atoms: _519  and  _520
REMARK  211  A    between atoms: _522  and  _524
REMARK  212  A    between atoms: _524  and  _525
REMARK  213  A    between atoms: _524  and  _527
REMARK  214  A    between atoms: _527  and  _528
REMARK  215  A    between atoms: _531  and  _533
REMARK  216  A    between atoms: _533  and  _534
REMARK  217  A    between atoms: _533  and  _536
REMARK  218  A    between atoms: _536  and  _537
REMARK  219  A    between atoms: _542  and  _544
REMARK  220  A    between atoms: _544  and  _545
REMARK  221  A    between atoms: _544  and  _547
REMARK  222  A    between atoms: _547  and  _548
REMARK  223  A    between atoms: _551  and  _553
REMARK  224  A    between atoms: _553  and  _554
REMARK  225  A    between atoms: _553  and  _556
REMARK  226  A    between atoms: _556  and  _557
REMARK  227  A    between atoms: _559  and  _561
REMARK  228  A    between atoms: _561  and  _562
REMARK  229  A    between atoms: _561  and  _564
REMARK  230  A    between atoms: _564  and  _565
REMARK  231  A    between atoms: _568  and  _570
REMARK  232  A    between atoms: _570  and  _571
REMARK  233  A    between atoms: _570  and  _573
REMARK  234  A    between atoms: _573  and  _574
REMARK  235  A    between atoms: _574  and  _575
REMARK  236  A    between atoms: _578  and  _580
REMARK  237  A    between atoms: _580  and  _581
REMARK  238  A    between atoms: _580  and  _583
REMARK  239  A    between atoms: _583  and  _584
REMARK  240  A    between atoms: _587  and  _589
REMARK  241  A    between atoms: _589  and  _590
REMARK  242  A    between atoms: _592  and  _594
REMARK  243  A    between atoms: _594  and  _595
REMARK  244  A    between atoms: _594  and  _597
REMARK  245  A    between atoms: _597  and  _598
REMARK  246  A    between atoms: _601  and  _603
REMARK  247  A    between atoms: _603  and  _604
REMARK  248  A    between atoms: _603  and  _606
REMARK  249  A    between atoms: _606  and  _607
REMARK  250  A    between atoms: _609  and  _611
REMARK  251  A    between atoms: _611  and  _612
REMARK  252  A    between atoms: _615  and  _617
REMARK  253  A    between atoms: _617  and  _618
REMARK  254  A    between atoms: _617  and  _620
REMARK  255  A    between atoms: _620  and  _621
REMARK  256  A    between atoms: _623  and  _625
REMARK  257  A    between atoms: _625  and  _626
REMARK                            x       y       z     vdW  Elec       q    Type
REMARK                         _______ _______ _______ _____ _____    ______ ____
ROOT
ATOM      1  CA  SER A   4      18.540  33.012  -1.179  0.00  0.00    +0.178 C 
ENDROOT
BRANCH   1   4
ATOM      2  C   THR A   3      16.775  31.555  -2.046  0.00  0.00    +0.243 C 
ATOM      3  O   THR A   3      16.609  31.029  -0.947  0.00  0.00    -0.273 OA
ATOM      4  N   SER A   4      17.656  32.533  -2.250  0.00  0.00    -0.295 N 
ATOM      5  H   SER A   4      17.720  32.969  -3.192  0.00  0.00    +0.150 HD
BRANCH   2   6
ATOM      6  CA  THR A   3      15.931  31.122  -3.252  0.00  0.00    +0.176 C 
BRANCH   6   9
ATOM      7  C   GLY A   2      15.173  33.373  -3.750  0.00  0.00    +0.243 C 
ATOM      8  O   GLY A   2      14.785  33.574  -2.592  0.00  0.00    -0.273 OA
ATOM      9  N   THR A   3      15.735  32.237  -4.146  0.00  0.00    -0.295 N 
ATOM     10  H   THR A   3      16.045  32.148  -5.135  0.00  0.00    +0.150 HD
BRANCH   7  11
ATOM     11  CA  GLY A   2      15.051  34.410  -4.842  0.00  0.00    +0.176 C 
BRANCH  11  14
ATOM     12  C   THR A   1      15.458  36.557  -3.769  0.00  0.00    +0.241 C 
ATOM     13  O   THR A   1      16.532  36.196  -3.296  0.00  0.00    -0.274 OA
ATOM     14  N   GLY A   2      14.673  35.765  -4.496  0.00  0.00    -0.295 N 
ATOM     15  H   GLY A   2      13.758  36.131  -4.827  0.00  0.00    +0.150 HD
BRANCH  12  16
ATOM     16  CA  THR A   1      14.925  37.976  -3.568  0.00  0.00    +0.172 C 
BRANCH  16  17
ATOM     17  N   THR A   1      15.705  38.910  -2.760  0.00  0.00    -0.236 NA
ATOM     18  H   THR A   1      16.733  38.974  -2.905  0.00  0.00    +0.142 HD
ENDBRANCH  16  17
BRANCH  16  19
ATOM     19  CB  THR A   1      14.761  38.560  -4.961  0.00  0.00    +0.135 C 
ATOM     20  CG2 THR A   1      14.353  40.049  -4.883  0.00  0.00    +0.034 C 
BRANCH  19  21
ATOM     21  OG1 THR A   1      16.021  38.482  -5.634  0.00  0.00    -0.383 OA
ATOM     22  HG1 THR A   1      15.931  38.859  -6.545  0.00  0.00    +0.210 HD
ENDBRANCH  19  21
ENDBRANCH  16  19
ENDBRANCH  12  16
ENDBRANCH  11  14
ENDBRANCH   7  11
ENDBRANCH   6   9
BRANCH   6  23
ATOM     23  CB  THR A   3      16.609  29.947  -4.030  0.00  0.00    +0.137 C 
ATOM     24  CG2 THR A   3      18.048  30.292  -4.389  0.00  0.00    +0.034 C 
BRANCH  23  25
ATOM     25  OG1 THR A   3      16.602  28.769  -3.234  0.00  0.00    -0.382 OA
ATOM     26  HG1 THR A   3      15.667  28.522  -3.020  0.00  0.00    +0.210 HD
ENDBRANCH  23  25
ENDBRANCH   6  23
ENDBRANCH   2   6
ENDBRANCH   1   4
BRANCH   1  27
ATOM     27  C   SER A   4      17.801  33.481   0.055  0.00  0.00    +0.243 C 
ATOM     28  O   SER A   4      18.292  33.333   1.177  0.00  0.00    -0.273 OA
ATOM     29  N   ALA A   5      16.620  34.056  -0.154  0.00  0.00    -0.297 N 
ATOM     30  H   ALA A   5      16.248  34.130  -1.122  0.00  0.00    +0.150 HD
BRANCH  29  31
ATOM     31  CA  ALA A   5      15.846  34.581   0.953  0.00  0.00    +0.149 C 
ATOM     32  CB  ALA A   5      14.924  35.693   0.456  0.00  0.00    +0.031 C 
BRANCH  31  33
ATOM     33  C   ALA A   5      15.037  33.552   1.726  0.00  0.00    +0.241 C 
ATOM     34  O   ALA A   5      14.627  33.818   2.849  0.00  0.00    -0.273 OA
ATOM     35  N   SER A   6      14.813  32.378   1.147  0.00  0.00    -0.295 N 
ATOM     36  H   SER A   6      15.212  32.170   0.209  0.00  0.00    +0.150 HD
BRANCH  35  37
ATOM     37  CA  SER A   6      14.003  31.385   1.838  0.00  0.00    +0.178 C 
BRANCH  37  38
ATOM     38  C   SER A   6      14.716  30.630   2.935  0.00  0.00    +0.243 C 
ATOM     39  O   SER A   6      14.183  30.483   4.028  0.00  0.00    -0.273 OA
ATOM     40  N   ALA A   7      15.931  30.176   2.671  0.00  0.00    -0.298 N 
ATOM     41  H   ALA A   7      16.371  30.368   1.748  0.00  0.00    +0.150 HD
BRANCH  40  42
ATOM     42  CA  ALA A   7      16.651  29.405   3.679  0.00  0.00    +0.137 C 
ATOM     43  CB  ALA A   7      18.036  28.965   3.127  0.00  0.00    +0.030 C 
BRANCH  42  44
ATOM     44  C   ALA A   7      16.818  30.140   5.019  0.00  0.00    +0.227 C 
ATOM     45  O   ALA A   7      16.582  29.577   6.094  0.00  0.00    -0.286 OA
ENDBRANCH  42  44
ENDBRANCH  40  42
ENDBRANCH  37  38
BRANCH  37  46
ATOM     46  CB  SER A   6      13.395  30.413   0.833  0.00  0.00    +0.166 C 
BRANCH  46  47
ATOM     47  OG  SER A   6      12.409  31.089   0.063  0.00  0.00    -0.380 OA
ATOM     48  H   SER A   6      12.013  30.459  -0.590  0.00  0.00    +0.211 HD
ENDBRANCH  46  47
ENDBRANCH  37  46
ENDBRANCH  35  37
ENDBRANCH  31  33
ENDBRANCH  29  31
ENDBRANCH   1  27
BRANCH   1  49
ATOM     49  CB  SER A   4      19.421  34.174  -1.665  0.00  0.00    +0.166 C 
BRANCH  49  50
ATOM     50  OG  SER A   4      20.377  33.768  -2.631  0.00  0.00    -0.380 OA
ATOM     51  H   SER A   4      19.910  33.391  -3.418  0.00  0.00    +0.211 HD
ENDBRANCH  49  50
ENDBRANCH   1  49
TORSDOF 22
REMARK  Name = ../refined-set-2016/4omc/4omc_pocket.pdb
REMARK  257 active torsions:
REMARK  status: ('A' for Active; 'I' for Inactive)
REMARK    1  A    between atoms: _1  and  _3
REMARK    2  A    between atoms: _3  and  _4
REMARK    3  A    between atoms: _3  and  _6
REMARK    4  A    between atoms: _6  and  _7
REMARK    5  A    between atoms: _10  and  _12
REMARK    6  A    between atoms: _12  and  _13
REMARK    7  A    between atoms: _12  and  _15
REMARK    8  A    between atoms: _15  and  _16
REMARK    9  A    between atoms: _19  and  _21
REMARK   10  A    between atoms: _21  and  _22
REMARK   11  A    between atoms: _24  and  _26
REMARK   12  A    between atoms: _26  and  _27
REMARK   13  A    between atoms: _26  and  _29
REMARK   14  A    between atoms: _29  and  _30
REMARK   15  A    between atoms: _35  and  _37
REMARK   16  A    between atoms: _37  and  _38
REMARK   17  A    between atoms: _37  and  _40
REMARK   18  A    between atoms: _40  and  _41
REMARK   19  A    between atoms: _41  and  _42
REMARK   20  A    between atoms: _42  and  _43
REMARK   21  A    between atoms: _52  and  _54
REMARK   22  A    between atoms: _54  and  _55
REMARK   23  A    between atoms: _54  and  _57
REMARK   24  A    between atoms: _57  and  _58
REMARK   25  A    between atoms: _61  and  _63
REMARK   26  A    between atoms: _63  and  _64
REMARK   27  A    between atoms: _63  and  _66
REMARK   28  A    between atoms: _66  and  _67
REMARK   29  A    between atoms: _72  and  _74
REMARK   30  A    between atoms: _74  and  _75
REMARK   31  A    between atoms: _74  and  _77
REMARK   32  A    between atoms: _77  and  _78
REMARK   33  A    between atoms: _81  and  _83
REMARK   34  A    between atoms: _83  and  _84
REMARK   35  A    between atoms: _83  and  _86
REMARK   36  A    between atoms: _86  and  _87
REMARK   37  A    between atoms: _92  and  _94
REMARK   38  A    between atoms: _94  and  _95
REMARK   39  A    between atoms: _94  and  _97
REMARK   40  A    between atoms: _97  and  _98
REMARK   41  A    between atoms: _98  and  _99
REMARK   42  A    between atoms: _99  and  _100
REMARK   43  A    between atoms: _109  and  _111
REMARK   44  A    between atoms: _111  and  _112
REMARK   45  A    between atoms: _111  and  _114
REMARK   46  A    between atoms: _114  and  _115
REMARK   47  A    between atoms: _120  and  _122
REMARK   48  A    between atoms: _122  and  _123
REMARK   49  A    between atoms: _125  and  _127
REMARK   50  A    between atoms: _127  and  _128
REMARK   51  A    between atoms: _127  and  _130
REMARK   52  A    between atoms: _130  and  _131
REMARK   53  A    between atoms: _134  and  _136
REMARK   54  A    between atoms: _136  and  _137
REMARK   55  A    between atoms: _136  and  _139
REMARK   56  A    between atoms: _141  and  _143
REMARK   57  A    between atoms: _143  and  _144
REMARK   58  A    between atoms: _143  and  _146
REMARK   59  A    between atoms: _146  and  _147
REMARK   60  A    between atoms: _147  and  _148
REMARK   61  A    between atoms: _148  and  _149
REMARK   62  A    between atoms: _158  and  _160
REMARK   63  A    between atoms: _160  and  _161
REMARK   64  A    between atoms: _160  and  _163
REMARK   65  A    between atoms: _163  and  _164
REMARK   66  A    between atoms: _164  and  _165
REMARK   67  A    between atoms: _167  and  _169
REMARK   68  A    between atoms: _169  and  _170
REMARK   69  A    between atoms: _169  and  _172
REMARK   70  A    between atoms: _172  and  _173
REMARK   71  A    between atoms: _176  and  _178
REMARK   72  A    between atoms: _178  and  _179
REMARK   73  A    between atoms: _178  and  _181
REMARK   74  A    between atoms: _181  and  _182
REMARK   75  A    between atoms: _185  and  _187
REMARK   76  A    between atoms: _187  and  _188
REMARK   77  A    between atoms: _190  and  _192
REMARK   78  A    between atoms: _192  and  _193
REMARK   79  A    between atoms: _192  and  _195
REMARK   80  A    between atoms: _195  and  _196
REMARK   81  A    between atoms: _196  and  _197
REMARK   82  A    between atoms: _200  and  _202
REMARK   83  A    between atoms: _202  and  _203
REMARK   84  A    between atoms: _202  and  _205
REMARK   85  A    between atoms: _208  and  _210
REMARK   86  A    between atoms: _210  and  _211
REMARK   87  A    between atoms: _210  and  _213
REMARK   88  A    between atoms: _213  and  _214
REMARK   89  A    between atoms: _217  and  _219
REMARK   90  A    between atoms: _219  and  _220
REMARK   91  A    between atoms: _219  and  _222
REMARK   92  A    between atoms: _222  and  _223
REMARK   93  A    between atoms: _226  and  _228
REMARK   94  A    between atoms: _228  and  _229
REMARK   95  A    between atoms: _232  and  _234
REMARK   96  A    between atoms: _234  and  _235
REMARK   97  A    between atoms: _234  and  _237
REMARK   98  A    between atoms: _240  and  _242
REMARK   99  A    between atoms: _242  and  _243
REMARK  100  A    between atoms: _242  and  _245
REMARK  101  A    between atoms: _245  and  _246
REMARK  102  A    between atoms: _246  and  _247
REMARK  103  A    between atoms: _250  and  _252
REMARK  104  A    between atoms: _252  and  _253
REMARK  105  A    between atoms: _256  and  _258
REMARK  106  A    between atoms: _258  and  _259
REMARK  107  A    between atoms: _262  and  _264
REMARK  108  A    between atoms: _264  and  _265
REMARK  109  A    between atoms: _264  and  _267
REMARK  110  A    between atoms: _267  and  _268
REMARK  111  A    between atoms: _270  and  _272
REMARK  112  A    between atoms: _272  and  _273
REMARK  113  A    between atoms: _272  and  _275
REMARK  114  A    between atoms: _275  and  _276
REMARK  115  A    between atoms: _286  and  _288
REMARK  116  A    between atoms: _288  and  _289
REMARK  117  A    between atoms: _292  and  _293
REMARK  118  A    between atoms: _298  and  _300
REMARK  119  A    between atoms: _300  and  _301
REMARK  120  A    between atoms: _300  and  _303
REMARK  121  A    between atoms: _303  and  _304
REMARK  122  A    between atoms: _304  and  _305
REMARK  123  A    between atoms: _308  and  _310
REMARK  124  A    between atoms: _310  and  _311
REMARK  125  A    between atoms: _310  and  _313
REMARK  126  A    between atoms: _313  and  _314
REMARK  127  A    between atoms: _314  and  _315
REMARK  128  A    between atoms: _315  and  CA_629
REMARK  129  A    between atoms: _317  and  _319
REMARK  130  A    between atoms: _319  and  _320
REMARK  131  A    between atoms: _319  and  _322
REMARK  132  A    between atoms: _322  and  _323
REMARK  133  A    between atoms: _326  and  _328
REMARK  134  A    between atoms: _328  and  _329
REMARK  135  A    between atoms: _328  and  _331
REMARK  136  A    between atoms: _331  and  _332
REMARK  137  A    between atoms: _335  and  _337
REMARK  138  A    between atoms: _337  and  _338
REMARK  139  A    between atoms: _337  and  _340
REMARK  140  A    between atoms: _343  and  _345
REMARK  141  A    between atoms: _345  and  _346
REMARK  142  A    between atoms: _345  and  _348
REMARK  143  A    between atoms: _348  and  _349
REMARK  144  A    between atoms: _352  and  _354
REMARK  145  A    between atoms: _354  and  _355
REMARK  146  A    between atoms: _358  and  _359
REMARK  147  A    between atoms: _364  and  _366
REMARK  148  A    between atoms: _366  and  _367
REMARK  149  A    between atoms: _370  and  _372
REMARK  150  A    between atoms: _372  and  _373
REMARK  151  A    between atoms: _372  and  _375
REMARK  152  A    between atoms: _375  and  _376
REMARK  153  A    between atoms: _376  and  _377
REMARK  154  A    between atoms: _377  and  _378
REMARK  155  A    between atoms: _387  and  _389
REMARK  156  A    between atoms: _389  and  _390
REMARK  157  A    between atoms: _389  and  _392
REMARK  158  A    between atoms: _392  and  _393
REMARK  159  A    between atoms: _396  and  _398
REMARK  160  A    between atoms: _398  and  _399
REMARK  161  A    between atoms: _402  and  _404
REMARK  162  A    between atoms: _404  and  _405
REMARK  163  A    between atoms: _404  and  _407
REMARK  164  A    between atoms: _407  and  _408
REMARK  165  A    between atoms: _408  and  _409
REMARK  166  A    between atoms: _412  and  _414
REMARK  167  A    between atoms: _414  and  _415
REMARK  168  A    between atoms: _414  and  _417
REMARK  169  A    between atoms: _417  and  _418
REMARK  170  A    between atoms: _428  and  _430
REMARK  171  A    between atoms: _430  and  _431
REMARK  172  A    between atoms: _434  and  _436
REMARK  173  A    between atoms: _436  and  _437
REMARK  174  A    between atoms: _436  and  _439
REMARK  175  A    between atoms: _439  and  _440
REMARK  176  A    between atoms: _442  and  _444
REMARK  177  A    between atoms: _444  and  _445
REMARK  178  A    between atoms: _447  and  _449
REMARK  179  A    between atoms: _449  and  _450
REMARK  180  A    between atoms: _449  and  _452
REMARK  181  A    between atoms: _452  and  _453
REMARK  182  A    between atoms: _458  and  _460
REMARK  183  A    between atoms: _460  and  _461
REMARK  184  A    between atoms: _463  and  _465
REMARK  185  A    between atoms: _465  and  _466
REMARK  186  A    between atoms: _465  and  _468
REMARK  187  A    between atoms: _468  and  _469
REMARK  188  A    between atoms: _469  and  _471
REMARK  189  A    between atoms: _471  and  CA_629
REMARK  190  A    between atoms: _472  and  _474
REMARK  191  A    between atoms: _474  and  _475
REMARK  192  A    between atoms: _474  and  _477
REMARK  193  A    between atoms: _477  and  _478
REMARK  194  A    between atoms: _480  and  _482
REMARK  195  A    between atoms: _482  and  _483
REMARK  196  A    between atoms: _482  and  _485
REMARK  197  A    between atoms: _487  and  _489
REMARK  198  A    between atoms: _489  and  _490
REMARK  199  A    between atoms: _489  and  _492
REMARK  200  A    between atoms: _494  and  _496
REMARK  201  A    between atoms: _496  and  _497
REMARK  202  A    between atoms: _496  and  _499
REMARK  203  A    between atoms: _499  and  _500
REMARK  204  A    between atoms: _503  and  _505
REMARK  205  A    between atoms: _505  and  _506
REMARK  206  A    between atoms: _508  and  _510
REMARK  207  A    between atoms: _510  and  _511
REMARK  208  A    between atoms: _510  and  _513
REMARK  209  A    between atoms: _513  and  _514
REMARK  210  A    between atoms: _519  and  _520
REMARK  211  A    between atoms: _522  and  _524
REMARK  212  A    between atoms: _524  and  _525
REMARK  213  A    between atoms: _524  and  _527
REMARK  214  A    between atoms: _527  and  _528
REMARK  215  A    between atoms: _531  and  _533
REMARK  216  A    between atoms: _533  and  _534
REMARK  217  A    between atoms: _533  and  _536
REMARK  218  A    between atoms: _536  and  _537
REMARK  219  A    between atoms: _542  and  _544
REMARK  220  A    between atoms: _544  and  _545
REMARK  221  A    between atoms: _544  and  _547
REMARK  222  A    between atoms: _547  and  _548
REMARK  223  A    between atoms: _551  and  _553
REMARK  224  A    between atoms: _553  and  _554
REMARK  225  A    between atoms: _553  and  _556
REMARK  226  A    between atoms: _556  and  _557
REMARK  227  A    between atoms: _559  and  _561
REMARK  228  A    between atoms: _561  and  _562
REMARK  229  A    between atoms: _561  and  _564
REMARK  230  A    between atoms: _564  and  _565
REMARK  231  A    between atoms: _568  and  _570
REMARK  232  A    between atoms: _570  and  _571
REMARK  233  A    between atoms: _570  and  _573
REMARK  234  A    between atoms: _573  and  _574
REMARK  235  A    between atoms: _574  and  _575
REMARK  236  A    between atoms: _578  and  _580
REMARK  237  A    between atoms: _580  and  _581
REMARK  238  A    between atoms: _580  and  _583
REMARK  239  A    between atoms: _583  and  _584
REMARK  240  A    between atoms: _587  and  _589
REMARK  241  A    between atoms: _589  and  _590
REMARK  242  A    between atoms: _592  and  _594
REMARK  243  A    between atoms: _594  and  _595
REMARK  244  A    between atoms: _594  and  _597
REMARK  245  A    between atoms: _597  and  _598
REMARK  246  A    between atoms: _601  and  _603
REMARK  247  A    between atoms: _603  and  _604
REMARK  248  A    between atoms: _603  and  _606
REMARK  249  A    between atoms: _606  and  _607
REMARK  250  A    between atoms: _609  and  _611
REMARK  251  A    between atoms: _611  and  _612
REMARK  252  A    between atoms: _615  and  _617
REMARK  253  A    between atoms: _617  and  _618
REMARK  254  A    between atoms: _617  and  _620
REMARK  255  A    between atoms: _620  and  _621
REMARK  256  A    between atoms: _623  and  _625
REMARK  257  A    between atoms: _625  and  _626
REMARK                            x       y       z     vdW  Elec       q    Type
REMARK                         _______ _______ _______ _____ _____    ______ ____
ROOT
ATOM      1  O   HOH     1      18.622  34.117  -4.606  0.00  0.00    +0.000 OA
ENDROOT
TORSDOF 0
REMARK  Name = ../refined-set-2016/4omc/4omc_pocket.pdb
REMARK  257 active torsions:
REMARK  status: ('A' for Active; 'I' for Inactive)
REMARK    1  A    between atoms: _1  and  _3
REMARK    2  A    between atoms: _3  and  _4
REMARK    3  A    between atoms: _3  and  _6
REMARK    4  A    between atoms: _6  and  _7
REMARK    5  A    between atoms: _10  and  _12
REMARK    6  A    between atoms: _12  and  _13
REMARK    7  A    between atoms: _12  and  _15
REMARK    8  A    between atoms: _15  and  _16
REMARK    9  A    between atoms: _19  and  _21
REMARK   10  A    between atoms: _21  and  _22
REMARK   11  A    between atoms: _24  and  _26
REMARK   12  A    between atoms: _26  and  _27
REMARK   13  A    between atoms: _26  and  _29
REMARK   14  A    between atoms: _29  and  _30
REMARK   15  A    between atoms: _35  and  _37
REMARK   16  A    between atoms: _37  and  _38
REMARK   17  A    between atoms: _37  and  _40
REMARK   18  A    between atoms: _40  and  _41
REMARK   19  A    between atoms: _41  and  _42
REMARK   20  A    between atoms: _42  and  _43
REMARK   21  A    between atoms: _52  and  _54
REMARK   22  A    between atoms: _54  and  _55
REMARK   23  A    between atoms: _54  and  _57
REMARK   24  A    between atoms: _57  and  _58
REMARK   25  A    between atoms: _61  and  _63
REMARK   26  A    between atoms: _63  and  _64
REMARK   27  A    between atoms: _63  and  _66
REMARK   28  A    between atoms: _66  and  _67
REMARK   29  A    between atoms: _72  and  _74
REMARK   30  A    between atoms: _74  and  _75
REMARK   31  A    between atoms: _74  and  _77
REMARK   32  A    between atoms: _77  and  _78
REMARK   33  A    between atoms: _81  and  _83
REMARK   34  A    between atoms: _83  and  _84
REMARK   35  A    between atoms: _83  and  _86
REMARK   36  A    between atoms: _86  and  _87
REMARK   37  A    between atoms: _92  and  _94
REMARK   38  A    between atoms: _94  and  _95
REMARK   39  A    between atoms: _94  and  _97
REMARK   40  A    between atoms: _97  and  _98
REMARK   41  A    between atoms: _98  and  _99
REMARK   42  A    between atoms: _99  and  _100
REMARK   43  A    between atoms: _109  and  _111
REMARK   44  A    between atoms: _111  and  _112
REMARK   45  A    between atoms: _111  and  _114
REMARK   46  A    between atoms: _114  and  _115
REMARK   47  A    between atoms: _120  and  _122
REMARK   48  A    between atoms: _122  and  _123
REMARK   49  A    between atoms: _125  and  _127
REMARK   50  A    between atoms: _127  and  _128
REMARK   51  A    between atoms: _127  and  _130
REMARK   52  A    between atoms: _130  and  _131
REMARK   53  A    between atoms: _134  and  _136
REMARK   54  A    between atoms: _136  and  _137
REMARK   55  A    between atoms: _136  and  _139
REMARK   56  A    between atoms: _141  and  _143
REMARK   57  A    between atoms: _143  and  _144
REMARK   58  A    between atoms: _143  and  _146
REMARK   59  A    between atoms: _146  and  _147
REMARK   60  A    between atoms: _147  and  _148
REMARK   61  A    between atoms: _148  and  _149
REMARK   62  A    between atoms: _158  and  _160
REMARK   63  A    between atoms: _160  and  _161
REMARK   64  A    between atoms: _160  and  _163
REMARK   65  A    between atoms: _163  and  _164
REMARK   66  A    between atoms: _164  and  _165
REMARK   67  A    between atoms: _167  and  _169
REMARK   68  A    between atoms: _169  and  _170
REMARK   69  A    between atoms: _169  and  _172
REMARK   70  A    between atoms: _172  and  _173
REMARK   71  A    between atoms: _176  and  _178
REMARK   72  A    between atoms: _178  and  _179
REMARK   73  A    between atoms: _178  and  _181
REMARK   74  A    between atoms: _181  and  _182
REMARK   75  A    between atoms: _185  and  _187
REMARK   76  A    between atoms: _187  and  _188
REMARK   77  A    between atoms: _190  and  _192
REMARK   78  A    between atoms: _192  and  _193
REMARK   79  A    between atoms: _192  and  _195
REMARK   80  A    between atoms: _195  and  _196
REMARK   81  A    between atoms: _196  and  _197
REMARK   82  A    between atoms: _200  and  _202
REMARK   83  A    between atoms: _202  and  _203
REMARK   84  A    between atoms: _202  and  _205
REMARK   85  A    between atoms: _208  and  _210
REMARK   86  A    between atoms: _210  and  _211
REMARK   87  A    between atoms: _210  and  _213
REMARK   88  A    between atoms: _213  and  _214
REMARK   89  A    between atoms: _217  and  _219
REMARK   90  A    between atoms: _219  and  _220
REMARK   91  A    between atoms: _219  and  _222
REMARK   92  A    between atoms: _222  and  _223
REMARK   93  A    between atoms: _226  and  _228
REMARK   94  A    between atoms: _228  and  _229
REMARK   95  A    between atoms: _232  and  _234
REMARK   96  A    between atoms: _234  and  _235
REMARK   97  A    between atoms: _234  and  _237
REMARK   98  A    between atoms: _240  and  _242
REMARK   99  A    between atoms: _242  and  _243
REMARK  100  A    between atoms: _242  and  _245
REMARK  101  A    between atoms: _245  and  _246
REMARK  102  A    between atoms: _246  and  _247
REMARK  103  A    between atoms: _250  and  _252
REMARK  104  A    between atoms: _252  and  _253
REMARK  105  A    between atoms: _256  and  _258
REMARK  106  A    between atoms: _258  and  _259
REMARK  107  A    between atoms: _262  and  _264
REMARK  108  A    between atoms: _264  and  _265
REMARK  109  A    between atoms: _264  and  _267
REMARK  110  A    between atoms: _267  and  _268
REMARK  111  A    between atoms: _270  and  _272
REMARK  112  A    between atoms: _272  and  _273
REMARK  113  A    between atoms: _272  and  _275
REMARK  114  A    between atoms: _275  and  _276
REMARK  115  A    between atoms: _286  and  _288
REMARK  116  A    between atoms: _288  and  _289
REMARK  117  A    between atoms: _292  and  _293
REMARK  118  A    between atoms: _298  and  _300
REMARK  119  A    between atoms: _300  and  _301
REMARK  120  A    between atoms: _300  and  _303
REMARK  121  A    between atoms: _303  and  _304
REMARK  122  A    between atoms: _304  and  _305
REMARK  123  A    between atoms: _308  and  _310
REMARK  124  A    between atoms: _310  and  _311
REMARK  125  A    between atoms: _310  and  _313
REMARK  126  A    between atoms: _313  and  _314
REMARK  127  A    between atoms: _314  and  _315
REMARK  128  A    between atoms: _315  and  CA_629
REMARK  129  A    between atoms: _317  and  _319
REMARK  130  A    between atoms: _319  and  _320
REMARK  131  A    between atoms: _319  and  _322
REMARK  132  A    between atoms: _322  and  _323
REMARK  133  A    between atoms: _326  and  _328
REMARK  134  A    between atoms: _328  and  _329
REMARK  135  A    between atoms: _328  and  _331
REMARK  136  A    between atoms: _331  and  _332
REMARK  137  A    between atoms: _335  and  _337
REMARK  138  A    between atoms: _337  and  _338
REMARK  139  A    between atoms: _337  and  _340
REMARK  140  A    between atoms: _343  and  _345
REMARK  141  A    between atoms: _345  and  _346
REMARK  142  A    between atoms: _345  and  _348
REMARK  143  A    between atoms: _348  and  _349
REMARK  144  A    between atoms: _352  and  _354
REMARK  145  A    between atoms: _354  and  _355
REMARK  146  A    between atoms: _358  and  _359
REMARK  147  A    between atoms: _364  and  _366
REMARK  148  A    between atoms: _366  and  _367
REMARK  149  A    between atoms: _370  and  _372
REMARK  150  A    between atoms: _372  and  _373
REMARK  151  A    between atoms: _372  and  _375
REMARK  152  A    between atoms: _375  and  _376
REMARK  153  A    between atoms: _376  and  _377
REMARK  154  A    between atoms: _377  and  _378
REMARK  155  A    between atoms: _387  and  _389
REMARK  156  A    between atoms: _389  and  _390
REMARK  157  A    between atoms: _389  and  _392
REMARK  158  A    between atoms: _392  and  _393
REMARK  159  A    between atoms: _396  and  _398
REMARK  160  A    between atoms: _398  and  _399
REMARK  161  A    between atoms: _402  and  _404
REMARK  162  A    between atoms: _404  and  _405
REMARK  163  A    between atoms: _404  and  _407
REMARK  164  A    between atoms: _407  and  _408
REMARK  165  A    between atoms: _408  and  _409
REMARK  166  A    between atoms: _412  and  _414
REMARK  167  A    between atoms: _414  and  _415
REMARK  168  A    between atoms: _414  and  _417
REMARK  169  A    between atoms: _417  and  _418
REMARK  170  A    between atoms: _428  and  _430
REMARK  171  A    between atoms: _430  and  _431
REMARK  172  A    between atoms: _434  and  _436
REMARK  173  A    between atoms: _436  and  _437
REMARK  174  A    between atoms: _436  and  _439
REMARK  175  A    between atoms: _439  and  _440
REMARK  176  A    between atoms: _442  and  _444
REMARK  177  A    between atoms: _444  and  _445
REMARK  178  A    between atoms: _447  and  _449
REMARK  179  A    between atoms: _449  and  _450
REMARK  180  A    between atoms: _449  and  _452
REMARK  181  A    between atoms: _452  and  _453
REMARK  182  A    between atoms: _458  and  _460
REMARK  183  A    between atoms: _460  and  _461
REMARK  184  A    between atoms: _463  and  _465
REMARK  185  A    between atoms: _465  and  _466
REMARK  186  A    between atoms: _465  and  _468
REMARK  187  A    between atoms: _468  and  _469
REMARK  188  A    between atoms: _469  and  _471
REMARK  189  A    between atoms: _471  and  CA_629
REMARK  190  A    between atoms: _472  and  _474
REMARK  191  A    between atoms: _474  and  _475
REMARK  192  A    between atoms: _474  and  _477
REMARK  193  A    between atoms: _477  and  _478
REMARK  194  A    between atoms: _480  and  _482
REMARK  195  A    between atoms: _482  and  _483
REMARK  196  A    between atoms: _482  and  _485
REMARK  197  A    between atoms: _487  and  _489
REMARK  198  A    between atoms: _489  and  _490
REMARK  199  A    between atoms: _489  and  _492
REMARK  200  A    between atoms: _494  and  _496
REMARK  201  A    between atoms: _496  and  _497
REMARK  202  A    between atoms: _496  and  _499
REMARK  203  A    between atoms: _499  and  _500
REMARK  204  A    between atoms: _503  and  _505
REMARK  205  A    between atoms: _505  and  _506
REMARK  206  A    between atoms: _508  and  _510
REMARK  207  A    between atoms: _510  and  _511
REMARK  208  A    between atoms: _510  and  _513
REMARK  209  A    between atoms: _513  and  _514
REMARK  210  A    between atoms: _519  and  _520
REMARK  211  A    between atoms: _522  and  _524
REMARK  212  A    between atoms: _524  and  _525
REMARK  213  A    between atoms: _524  and  _527
REMARK  214  A    between atoms: _527  and  _528
REMARK  215  A    between atoms: _531  and  _533
REMARK  216  A    between atoms: _533  and  _534
REMARK  217  A    between atoms: _533  and  _536
REMARK  218  A    between atoms: _536  and  _537
REMARK  219  A    between atoms: _542  and  _544
REMARK  220  A    between atoms: _544  and  _545
REMARK  221  A    between atoms: _544  and  _547
REMARK  222  A    between atoms: _547  and  _548
REMARK  223  A    between atoms: _551  and  _553
REMARK  224  A    between atoms: _553  and  _554
REMARK  225  A    between atoms: _553  and  _556
REMARK  226  A    between atoms: _556  and  _557
REMARK  227  A    between atoms: _559  and  _561
REMARK  228  A    between atoms: _561  and  _562
REMARK  229  A    between atoms: _561  and  _564
REMARK  230  A    between atoms: _564  and  _565
REMARK  231  A    between atoms: _568  and  _570
REMARK  232  A    between atoms: _570  and  _571
REMARK  233  A    between atoms: _570  and  _573
REMARK  234  A    between atoms: _573  and  _574
REMARK  235  A    between atoms: _574  and  _575
REMARK  236  A    between atoms: _578  and  _580
REMARK  237  A    between atoms: _580  and  _581
REMARK  238  A    between atoms: _580  and  _583
REMARK  239  A    between atoms: _583  and  _584
REMARK  240  A    between atoms: _587  and  _589
REMARK  241  A    between atoms: _589  and  _590
REMARK  242  A    between atoms: _592  and  _594
REMARK  243  A    between atoms: _594  and  _595
REMARK  244  A    between atoms: _594  and  _597
REMARK  245  A    between atoms: _597  and  _598
REMARK  246  A    between atoms: _601  and  _603
REMARK  247  A    between atoms: _603  and  _604
REMARK  248  A    between atoms: _603  and  _606
REMARK  249  A    between atoms: _606  and  _607
REMARK  250  A    between atoms: _609  and  _611
REMARK  251  A    between atoms: _611  and  _612
REMARK  252  A    between atoms: _615  and  _617
REMARK  253  A    between atoms: _617  and  _618
REMARK  254  A    between atoms: _617  and  _620
REMARK  255  A    between atoms: _620  and  _621
REMARK  256  A    between atoms: _623  and  _625
REMARK  257  A    between atoms: _625  and  _626
REMARK                            x       y       z     vdW  Elec       q    Type
REMARK                         _______ _______ _______ _____ _____    ______ ____
ROOT
ATOM      1  O   HOH     1      27.475  40.617   3.446  0.00  0.00    +0.000 OA
ENDROOT
TORSDOF 0
REMARK  Name = ../refined-set-2016/4omc/4omc_pocket.pdb
REMARK  257 active torsions:
REMARK  status: ('A' for Active; 'I' for Inactive)
REMARK    1  A    between atoms: _1  and  _3
REMARK    2  A    between atoms: _3  and  _4
REMARK    3  A    between atoms: _3  and  _6
REMARK    4  A    between atoms: _6  and  _7
REMARK    5  A    between atoms: _10  and  _12
REMARK    6  A    between atoms: _12  and  _13
REMARK    7  A    between atoms: _12  and  _15
REMARK    8  A    between atoms: _15  and  _16
REMARK    9  A    between atoms: _19  and  _21
REMARK   10  A    between atoms: _21  and  _22
REMARK   11  A    between atoms: _24  and  _26
REMARK   12  A    between atoms: _26  and  _27
REMARK   13  A    between atoms: _26  and  _29
REMARK   14  A    between atoms: _29  and  _30
REMARK   15  A    between atoms: _35  and  _37
REMARK   16  A    between atoms: _37  and  _38
REMARK   17  A    between atoms: _37  and  _40
REMARK   18  A    between atoms: _40  and  _41
REMARK   19  A    between atoms: _41  and  _42
REMARK   20  A    between atoms: _42  and  _43
REMARK   21  A    between atoms: _52  and  _54
REMARK   22  A    between atoms: _54  and  _55
REMARK   23  A    between atoms: _54  and  _57
REMARK   24  A    between atoms: _57  and  _58
REMARK   25  A    between atoms: _61  and  _63
REMARK   26  A    between atoms: _63  and  _64
REMARK   27  A    between atoms: _63  and  _66
REMARK   28  A    between atoms: _66  and  _67
REMARK   29  A    between atoms: _72  and  _74
REMARK   30  A    between atoms: _74  and  _75
REMARK   31  A    between atoms: _74  and  _77
REMARK   32  A    between atoms: _77  and  _78
REMARK   33  A    between atoms: _81  and  _83
REMARK   34  A    between atoms: _83  and  _84
REMARK   35  A    between atoms: _83  and  _86
REMARK   36  A    between atoms: _86  and  _87
REMARK   37  A    between atoms: _92  and  _94
REMARK   38  A    between atoms: _94  and  _95
REMARK   39  A    between atoms: _94  and  _97
REMARK   40  A    between atoms: _97  and  _98
REMARK   41  A    between atoms: _98  and  _99
REMARK   42  A    between atoms: _99  and  _100
REMARK   43  A    between atoms: _109  and  _111
REMARK   44  A    between atoms: _111  and  _112
REMARK   45  A    between atoms: _111  and  _114
REMARK   46  A    between atoms: _114  and  _115
REMARK   47  A    between atoms: _120  and  _122
REMARK   48  A    between atoms: _122  and  _123
REMARK   49  A    between atoms: _125  and  _127
REMARK   50  A    between atoms: _127  and  _128
REMARK   51  A    between atoms: _127  and  _130
REMARK   52  A    between atoms: _130  and  _131
REMARK   53  A    between atoms: _134  and  _136
REMARK   54  A    between atoms: _136  and  _137
REMARK   55  A    between atoms: _136  and  _139
REMARK   56  A    between atoms: _141  and  _143
REMARK   57  A    between atoms: _143  and  _144
REMARK   58  A    between atoms: _143  and  _146
REMARK   59  A    between atoms: _146  and  _147
REMARK   60  A    between atoms: _147  and  _148
REMARK   61  A    between atoms: _148  and  _149
REMARK   62  A    between atoms: _158  and  _160
REMARK   63  A    between atoms: _160  and  _161
REMARK   64  A    between atoms: _160  and  _163
REMARK   65  A    between atoms: _163  and  _164
REMARK   66  A    between atoms: _164  and  _165
REMARK   67  A    between atoms: _167  and  _169
REMARK   68  A    between atoms: _169  and  _170
REMARK   69  A    between atoms: _169  and  _172
REMARK   70  A    between atoms: _172  and  _173
REMARK   71  A    between atoms: _176  and  _178
REMARK   72  A    between atoms: _178  and  _179
REMARK   73  A    between atoms: _178  and  _181
REMARK   74  A    between atoms: _181  and  _182
REMARK   75  A    between atoms: _185  and  _187
REMARK   76  A    between atoms: _187  and  _188
REMARK   77  A    between atoms: _190  and  _192
REMARK   78  A    between atoms: _192  and  _193
REMARK   79  A    between atoms: _192  and  _195
REMARK   80  A    between atoms: _195  and  _196
REMARK   81  A    between atoms: _196  and  _197
REMARK   82  A    between atoms: _200  and  _202
REMARK   83  A    between atoms: _202  and  _203
REMARK   84  A    between atoms: _202  and  _205
REMARK   85  A    between atoms: _208  and  _210
REMARK   86  A    between atoms: _210  and  _211
REMARK   87  A    between atoms: _210  and  _213
REMARK   88  A    between atoms: _213  and  _214
REMARK   89  A    between atoms: _217  and  _219
REMARK   90  A    between atoms: _219  and  _220
REMARK   91  A    between atoms: _219  and  _222
REMARK   92  A    between atoms: _222  and  _223
REMARK   93  A    between atoms: _226  and  _228
REMARK   94  A    between atoms: _228  and  _229
REMARK   95  A    between atoms: _232  and  _234
REMARK   96  A    between atoms: _234  and  _235
REMARK   97  A    between atoms: _234  and  _237
REMARK   98  A    between atoms: _240  and  _242
REMARK   99  A    between atoms: _242  and  _243
REMARK  100  A    between atoms: _242  and  _245
REMARK  101  A    between atoms: _245  and  _246
REMARK  102  A    between atoms: _246  and  _247
REMARK  103  A    between atoms: _250  and  _252
REMARK  104  A    between atoms: _252  and  _253
REMARK  105  A    between atoms: _256  and  _258
REMARK  106  A    between atoms: _258  and  _259
REMARK  107  A    between atoms: _262  and  _264
REMARK  108  A    between atoms: _264  and  _265
REMARK  109  A    between atoms: _264  and  _267
REMARK  110  A    between atoms: _267  and  _268
REMARK  111  A    between atoms: _270  and  _272
REMARK  112  A    between atoms: _272  and  _273
REMARK  113  A    between atoms: _272  and  _275
REMARK  114  A    between atoms: _275  and  _276
REMARK  115  A    between atoms: _286  and  _288
REMARK  116  A    between atoms: _288  and  _289
REMARK  117  A    between atoms: _292  and  _293
REMARK  118  A    between atoms: _298  and  _300
REMARK  119  A    between atoms: _300  and  _301
REMARK  120  A    between atoms: _300  and  _303
REMARK  121  A    between atoms: _303  and  _304
REMARK  122  A    between atoms: _304  and  _305
REMARK  123  A    between atoms: _308  and  _310
REMARK  124  A    between atoms: _310  and  _311
REMARK  125  A    between atoms: _310  and  _313
REMARK  126  A    between atoms: _313  and  _314
REMARK  127  A    between atoms: _314  and  _315
REMARK  128  A    between atoms: _315  and  CA_629
REMARK  129  A    between atoms: _317  and  _319
REMARK  130  A    between atoms: _319  and  _320
REMARK  131  A    between atoms: _319  and  _322
REMARK  132  A    between atoms: _322  and  _323
REMARK  133  A    between atoms: _326  and  _328
REMARK  134  A    between atoms: _328  and  _329
REMARK  135  A    between atoms: _328  and  _331
REMARK  136  A    between atoms: _331  and  _332
REMARK  137  A    between atoms: _335  and  _337
REMARK  138  A    between atoms: _337  and  _338
REMARK  139  A    between atoms: _337  and  _340
REMARK  140  A    between atoms: _343  and  _345
REMARK  141  A    between atoms: _345  and  _346
REMARK  142  A    between atoms: _345  and  _348
REMARK  143  A    between atoms: _348  and  _349
REMARK  144  A    between atoms: _352  and  _354
REMARK  145  A    between atoms: _354  and  _355
REMARK  146  A    between atoms: _358  and  _359
REMARK  147  A    between atoms: _364  and  _366
REMARK  148  A    between atoms: _366  and  _367
REMARK  149  A    between atoms: _370  and  _372
REMARK  150  A    between atoms: _372  and  _373
REMARK  151  A    between atoms: _372  and  _375
REMARK  152  A    between atoms: _375  and  _376
REMARK  153  A    between atoms: _376  and  _377
REMARK  154  A    between atoms: _377  and  _378
REMARK  155  A    between atoms: _387  and  _389
REMARK  156  A    between atoms: _389  and  _390
REMARK  157  A    between atoms: _389  and  _392
REMARK  158  A    between atoms: _392  and  _393
REMARK  159  A    between atoms: _396  and  _398
REMARK  160  A    between atoms: _398  and  _399
REMARK  161  A    between atoms: _402  and  _404
REMARK  162  A    between atoms: _404  and  _405
REMARK  163  A    between atoms: _404  and  _407
REMARK  164  A    between atoms: _407  and  _408
REMARK  165  A    between atoms: _408  and  _409
REMARK  166  A    between atoms: _412  and  _414
REMARK  167  A    between atoms: _414  and  _415
REMARK  168  A    between atoms: _414  and  _417
REMARK  169  A    between atoms: _417  and  _418
REMARK  170  A    between atoms: _428  and  _430
REMARK  171  A    between atoms: _430  and  _431
REMARK  172  A    between atoms: _434  and  _436
REMARK  173  A    between atoms: _436  and  _437
REMARK  174  A    between atoms: _436  and  _439
REMARK  175  A    between atoms: _439  and  _440
REMARK  176  A    between atoms: _442  and  _444
REMARK  177  A    between atoms: _444  and  _445
REMARK  178  A    between atoms: _447  and  _449
REMARK  179  A    between atoms: _449  and  _450
REMARK  180  A    between atoms: _449  and  _452
REMARK  181  A    between atoms: _452  and  _453
REMARK  182  A    between atoms: _458  and  _460
REMARK  183  A    between atoms: _460  and  _461
REMARK  184  A    between atoms: _463  and  _465
REMARK  185  A    between atoms: _465  and  _466
REMARK  186  A    between atoms: _465  and  _468
REMARK  187  A    between atoms: _468  and  _469
REMARK  188  A    between atoms: _469  and  _471
REMARK  189  A    between atoms: _471  and  CA_629
REMARK  190  A    between atoms: _472  and  _474
REMARK  191  A    between atoms: _474  and  _475
REMARK  192  A    between atoms: _474  and  _477
REMARK  193  A    between atoms: _477  and  _478
REMARK  194  A    between atoms: _480  and  _482
REMARK  195  A    between atoms: _482  and  _483
REMARK  196  A    between atoms: _482  and  _485
REMARK  197  A    between atoms: _487  and  _489
REMARK  198  A    between atoms: _489  and  _490
REMARK  199  A    between atoms: _489  and  _492
REMARK  200  A    between atoms: _494  and  _496
REMARK  201  A    between atoms: _496  and  _497
REMARK  202  A    between atoms: _496  and  _499
REMARK  203  A    between atoms: _499  and  _500
REMARK  204  A    between atoms: _503  and  _505
REMARK  205  A    between atoms: _505  and  _506
REMARK  206  A    between atoms: _508  and  _510
REMARK  207  A    between atoms: _510  and  _511
REMARK  208  A    between atoms: _510  and  _513
REMARK  209  A    between atoms: _513  and  _514
REMARK  210  A    between atoms: _519  and  _520
REMARK  211  A    between atoms: _522  and  _524
REMARK  212  A    between atoms: _524  and  _525
REMARK  213  A    between atoms: _524  and  _527
REMARK  214  A    between atoms: _527  and  _528
REMARK  215  A    between atoms: _531  and  _533
REMARK  216  A    between atoms: _533  and  _534
REMARK  217  A    between atoms: _533  and  _536
REMARK  218  A    between atoms: _536  and  _537
REMARK  219  A    between atoms: _542  and  _544
REMARK  220  A    between atoms: _544  and  _545
REMARK  221  A    between atoms: _544  and  _547
REMARK  222  A    between atoms: _547  and  _548
REMARK  223  A    between atoms: _551  and  _553
REMARK  224  A    between atoms: _553  and  _554
REMARK  225  A    between atoms: _553  and  _556
REMARK  226  A    between atoms: _556  and  _557
REMARK  227  A    between atoms: _559  and  _561
REMARK  228  A    between atoms: _561  and  _562
REMARK  229  A    between atoms: _561  and  _564
REMARK  230  A    between atoms: _564  and  _565
REMARK  231  A    between atoms: _568  and  _570
REMARK  232  A    between atoms: _570  and  _571
REMARK  233  A    between atoms: _570  and  _573
REMARK  234  A    between atoms: _573  and  _574
REMARK  235  A    between atoms: _574  and  _575
REMARK  236  A    between atoms: _578  and  _580
REMARK  237  A    between atoms: _580  and  _581
REMARK  238  A    between atoms: _580  and  _583
REMARK  239  A    between atoms: _583  and  _584
REMARK  240  A    between atoms: _587  and  _589
REMARK  241  A    between atoms: _589  and  _590
REMARK  242  A    between atoms: _592  and  _594
REMARK  243  A    between atoms: _594  and  _595
REMARK  244  A    between atoms: _594  and  _597
REMARK  245  A    between atoms: _597  and  _598
REMARK  246  A    between atoms: _601  and  _603
REMARK  247  A    between atoms: _603  and  _604
REMARK  248  A    between atoms: _603  and  _606
REMARK  249  A    between atoms: _606  and  _607
REMARK  250  A    between atoms: _609  and  _611
REMARK  251  A    between atoms: _611  and  _612
REMARK  252  A    between atoms: _615  and  _617
REMARK  253  A    between atoms: _617  and  _618
REMARK  254  A    between atoms: _617  and  _620
REMARK  255  A    between atoms: _620  and  _621
REMARK  256  A    between atoms: _623  and  _625
REMARK  257  A    between atoms: _625  and  _626
REMARK                            x       y       z     vdW  Elec       q    Type
REMARK                         _______ _______ _______ _____ _____    ______ ____
ROOT
ATOM      1  O   HOH     1      33.070  20.373  -1.302  0.00  0.00    +0.000 OA
ENDROOT
TORSDOF 0
REMARK  Name = ../refined-set-2016/4omc/4omc_pocket.pdb
REMARK  257 active torsions:
REMARK  status: ('A' for Active; 'I' for Inactive)
REMARK    1  A    between atoms: _1  and  _3
REMARK    2  A    between atoms: _3  and  _4
REMARK    3  A    between atoms: _3  and  _6
REMARK    4  A    between atoms: _6  and  _7
REMARK    5  A    between atoms: _10  and  _12
REMARK    6  A    between atoms: _12  and  _13
REMARK    7  A    between atoms: _12  and  _15
REMARK    8  A    between atoms: _15  and  _16
REMARK    9  A    between atoms: _19  and  _21
REMARK   10  A    between atoms: _21  and  _22
REMARK   11  A    between atoms: _24  and  _26
REMARK   12  A    between atoms: _26  and  _27
REMARK   13  A    between atoms: _26  and  _29
REMARK   14  A    between atoms: _29  and  _30
REMARK   15  A    between atoms: _35  and  _37
REMARK   16  A    between atoms: _37  and  _38
REMARK   17  A    between atoms: _37  and  _40
REMARK   18  A    between atoms: _40  and  _41
REMARK   19  A    between atoms: _41  and  _42
REMARK   20  A    between atoms: _42  and  _43
REMARK   21  A    between atoms: _52  and  _54
REMARK   22  A    between atoms: _54  and  _55
REMARK   23  A    between atoms: _54  and  _57
REMARK   24  A    between atoms: _57  and  _58
REMARK   25  A    between atoms: _61  and  _63
REMARK   26  A    between atoms: _63  and  _64
REMARK   27  A    between atoms: _63  and  _66
REMARK   28  A    between atoms: _66  and  _67
REMARK   29  A    between atoms: _72  and  _74
REMARK   30  A    between atoms: _74  and  _75
REMARK   31  A    between atoms: _74  and  _77
REMARK   32  A    between atoms: _77  and  _78
REMARK   33  A    between atoms: _81  and  _83
REMARK   34  A    between atoms: _83  and  _84
REMARK   35  A    between atoms: _83  and  _86
REMARK   36  A    between atoms: _86  and  _87
REMARK   37  A    between atoms: _92  and  _94
REMARK   38  A    between atoms: _94  and  _95
REMARK   39  A    between atoms: _94  and  _97
REMARK   40  A    between atoms: _97  and  _98
REMARK   41  A    between atoms: _98  and  _99
REMARK   42  A    between atoms: _99  and  _100
REMARK   43  A    between atoms: _109  and  _111
REMARK   44  A    between atoms: _111  and  _112
REMARK   45  A    between atoms: _111  and  _114
REMARK   46  A    between atoms: _114  and  _115
REMARK   47  A    between atoms: _120  and  _122
REMARK   48  A    between atoms: _122  and  _123
REMARK   49  A    between atoms: _125  and  _127
REMARK   50  A    between atoms: _127  and  _128
REMARK   51  A    between atoms: _127  and  _130
REMARK   52  A    between atoms: _130  and  _131
REMARK   53  A    between atoms: _134  and  _136
REMARK   54  A    between atoms: _136  and  _137
REMARK   55  A    between atoms: _136  and  _139
REMARK   56  A    between atoms: _141  and  _143
REMARK   57  A    between atoms: _143  and  _144
REMARK   58  A    between atoms: _143  and  _146
REMARK   59  A    between atoms: _146  and  _147
REMARK   60  A    between atoms: _147  and  _148
REMARK   61  A    between atoms: _148  and  _149
REMARK   62  A    between atoms: _158  and  _160
REMARK   63  A    between atoms: _160  and  _161
REMARK   64  A    between atoms: _160  and  _163
REMARK   65  A    between atoms: _163  and  _164
REMARK   66  A    between atoms: _164  and  _165
REMARK   67  A    between atoms: _167  and  _169
REMARK   68  A    between atoms: _169  and  _170
REMARK   69  A    between atoms: _169  and  _172
REMARK   70  A    between atoms: _172  and  _173
REMARK   71  A    between atoms: _176  and  _178
REMARK   72  A    between atoms: _178  and  _179
REMARK   73  A    between atoms: _178  and  _181
REMARK   74  A    between atoms: _181  and  _182
REMARK   75  A    between atoms: _185  and  _187
REMARK   76  A    between atoms: _187  and  _188
REMARK   77  A    between atoms: _190  and  _192
REMARK   78  A    between atoms: _192  and  _193
REMARK   79  A    between atoms: _192  and  _195
REMARK   80  A    between atoms: _195  and  _196
REMARK   81  A    between atoms: _196  and  _197
REMARK   82  A    between atoms: _200  and  _202
REMARK   83  A    between atoms: _202  and  _203
REMARK   84  A    between atoms: _202  and  _205
REMARK   85  A    between atoms: _208  and  _210
REMARK   86  A    between atoms: _210  and  _211
REMARK   87  A    between atoms: _210  and  _213
REMARK   88  A    between atoms: _213  and  _214
REMARK   89  A    between atoms: _217  and  _219
REMARK   90  A    between atoms: _219  and  _220
REMARK   91  A    between atoms: _219  and  _222
REMARK   92  A    between atoms: _222  and  _223
REMARK   93  A    between atoms: _226  and  _228
REMARK   94  A    between atoms: _228  and  _229
REMARK   95  A    between atoms: _232  and  _234
REMARK   96  A    between atoms: _234  and  _235
REMARK   97  A    between atoms: _234  and  _237
REMARK   98  A    between atoms: _240  and  _242
REMARK   99  A    between atoms: _242  and  _243
REMARK  100  A    between atoms: _242  and  _245
REMARK  101  A    between atoms: _245  and  _246
REMARK  102  A    between atoms: _246  and  _247
REMARK  103  A    between atoms: _250  and  _252
REMARK  104  A    between atoms: _252  and  _253
REMARK  105  A    between atoms: _256  and  _258
REMARK  106  A    between atoms: _258  and  _259
REMARK  107  A    between atoms: _262  and  _264
REMARK  108  A    between atoms: _264  and  _265
REMARK  109  A    between atoms: _264  and  _267
REMARK  110  A    between atoms: _267  and  _268
REMARK  111  A    between atoms: _270  and  _272
REMARK  112  A    between atoms: _272  and  _273
REMARK  113  A    between atoms: _272  and  _275
REMARK  114  A    between atoms: _275  and  _276
REMARK  115  A    between atoms: _286  and  _288
REMARK  116  A    between atoms: _288  and  _289
REMARK  117  A    between atoms: _292  and  _293
REMARK  118  A    between atoms: _298  and  _300
REMARK  119  A    between atoms: _300  and  _301
REMARK  120  A    between atoms: _300  and  _303
REMARK  121  A    between atoms: _303  and  _304
REMARK  122  A    between atoms: _304  and  _305
REMARK  123  A    between atoms: _308  and  _310
REMARK  124  A    between atoms: _310  and  _311
REMARK  125  A    between atoms: _310  and  _313
REMARK  126  A    between atoms: _313  and  _314
REMARK  127  A    between atoms: _314  and  _315
REMARK  128  A    between atoms: _315  and  CA_629
REMARK  129  A    between atoms: _317  and  _319
REMARK  130  A    between atoms: _319  and  _320
REMARK  131  A    between atoms: _319  and  _322
REMARK  132  A    between atoms: _322  and  _323
REMARK  133  A    between atoms: _326  and  _328
REMARK  134  A    between atoms: _328  and  _329
REMARK  135  A    between atoms: _328  and  _331
REMARK  136  A    between atoms: _331  and  _332
REMARK  137  A    between atoms: _335  and  _337
REMARK  138  A    between atoms: _337  and  _338
REMARK  139  A    between atoms: _337  and  _340
REMARK  140  A    between atoms: _343  and  _345
REMARK  141  A    between atoms: _345  and  _346
REMARK  142  A    between atoms: _345  and  _348
REMARK  143  A    between atoms: _348  and  _349
REMARK  144  A    between atoms: _352  and  _354
REMARK  145  A    between atoms: _354  and  _355
REMARK  146  A    between atoms: _358  and  _359
REMARK  147  A    between atoms: _364  and  _366
REMARK  148  A    between atoms: _366  and  _367
REMARK  149  A    between atoms: _370  and  _372
REMARK  150  A    between atoms: _372  and  _373
REMARK  151  A    between atoms: _372  and  _375
REMARK  152  A    between atoms: _375  and  _376
REMARK  153  A    between atoms: _376  and  _377
REMARK  154  A    between atoms: _377  and  _378
REMARK  155  A    between atoms: _387  and  _389
REMARK  156  A    between atoms: _389  and  _390
REMARK  157  A    between atoms: _389  and  _392
REMARK  158  A    between atoms: _392  and  _393
REMARK  159  A    between atoms: _396  and  _398
REMARK  160  A    between atoms: _398  and  _399
REMARK  161  A    between atoms: _402  and  _404
REMARK  162  A    between atoms: _404  and  _405
REMARK  163  A    between atoms: _404  and  _407
REMARK  164  A    between atoms: _407  and  _408
REMARK  165  A    between atoms: _408  and  _409
REMARK  166  A    between atoms: _412  and  _414
REMARK  167  A    between atoms: _414  and  _415
REMARK  168  A    between atoms: _414  and  _417
REMARK  169  A    between atoms: _417  and  _418
REMARK  170  A    between atoms: _428  and  _430
REMARK  171  A    between atoms: _430  and  _431
REMARK  172  A    between atoms: _434  and  _436
REMARK  173  A    between atoms: _436  and  _437
REMARK  174  A    between atoms: _436  and  _439
REMARK  175  A    between atoms: _439  and  _440
REMARK  176  A    between atoms: _442  and  _444
REMARK  177  A    between atoms: _444  and  _445
REMARK  178  A    between atoms: _447  and  _449
REMARK  179  A    between atoms: _449  and  _450
REMARK  180  A    between atoms: _449  and  _452
REMARK  181  A    between atoms: _452  and  _453
REMARK  182  A    between atoms: _458  and  _460
REMARK  183  A    between atoms: _460  and  _461
REMARK  184  A    between atoms: _463  and  _465
REMARK  185  A    between atoms: _465  and  _466
REMARK  186  A    between atoms: _465  and  _468
REMARK  187  A    between atoms: _468  and  _469
REMARK  188  A    between atoms: _469  and  _471
REMARK  189  A    between atoms: _471  and  CA_629
REMARK  190  A    between atoms: _472  and  _474
REMARK  191  A    between atoms: _474  and  _475
REMARK  192  A    between atoms: _474  and  _477
REMARK  193  A    between atoms: _477  and  _478
REMARK  194  A    between atoms: _480  and  _482
REMARK  195  A    between atoms: _482  and  _483
REMARK  196  A    between atoms: _482  and  _485
REMARK  197  A    between atoms: _487  and  _489
REMARK  198  A    between atoms: _489  and  _490
REMARK  199  A    between atoms: _489  and  _492
REMARK  200  A    between atoms: _494  and  _496
REMARK  201  A    between atoms: _496  and  _497
REMARK  202  A    between atoms: _496  and  _499
REMARK  203  A    between atoms: _499  and  _500
REMARK  204  A    between atoms: _503  and  _505
REMARK  205  A    between atoms: _505  and  _506
REMARK  206  A    between atoms: _508  and  _510
REMARK  207  A    between atoms: _510  and  _511
REMARK  208  A    between atoms: _510  and  _513
REMARK  209  A    between atoms: _513  and  _514
REMARK  210  A    between atoms: _519  and  _520
REMARK  211  A    between atoms: _522  and  _524
REMARK  212  A    between atoms: _524  and  _525
REMARK  213  A    between atoms: _524  and  _527
REMARK  214  A    between atoms: _527  and  _528
REMARK  215  A    between atoms: _531  and  _533
REMARK  216  A    between atoms: _533  and  _534
REMARK  217  A    between atoms: _533  and  _536
REMARK  218  A    between atoms: _536  and  _537
REMARK  219  A    between atoms: _542  and  _544
REMARK  220  A    between atoms: _544  and  _545
REMARK  221  A    between atoms: _544  and  _547
REMARK  222  A    between atoms: _547  and  _548
REMARK  223  A    between atoms: _551  and  _553
REMARK  224  A    between atoms: _553  and  _554
REMARK  225  A    between atoms: _553  and  _556
REMARK  226  A    between atoms: _556  and  _557
REMARK  227  A    between atoms: _559  and  _561
REMARK  228  A    between atoms: _561  and  _562
REMARK  229  A    between atoms: _561  and  _564
REMARK  230  A    between atoms: _564  and  _565
REMARK  231  A    between atoms: _568  and  _570
REMARK  232  A    between atoms: _570  and  _571
REMARK  233  A    between atoms: _570  and  _573
REMARK  234  A    between atoms: _573  and  _574
REMARK  235  A    between atoms: _574  and  _575
REMARK  236  A    between atoms: _578  and  _580
REMARK  237  A    between atoms: _580  and  _581
REMARK  238  A    between atoms: _580  and  _583
REMARK  239  A    between atoms: _583  and  _584
REMARK  240  A    between atoms: _587  and  _589
REMARK  241  A    between atoms: _589  and  _590
REMARK  242  A    between atoms: _592  and  _594
REMARK  243  A    between atoms: _594  and  _595
REMARK  244  A    between atoms: _594  and  _597
REMARK  245  A    between atoms: _597  and  _598
REMARK  246  A    between atoms: _601  and  _603
REMARK  247  A    between atoms: _603  and  _604
REMARK  248  A    between atoms: _603  and  _606
REMARK  249  A    between atoms: _606  and  _607
REMARK  250  A    between atoms: _609  and  _611
REMARK  251  A    between atoms: _611  and  _612
REMARK  252  A    between atoms: _615  and  _617
REMARK  253  A    between atoms: _617  and  _618
REMARK  254  A    between atoms: _617  and  _620
REMARK  255  A    between atoms: _620  and  _621
REMARK  256  A    between atoms: _623  and  _625
REMARK  257  A    between atoms: _625  and  _626
REMARK                            x       y       z     vdW  Elec       q    Type
REMARK                         _______ _______ _______ _____ _____    ______ ____
ROOT
ATOM      1  O   HOH     1      24.267  31.716   2.838  0.00  0.00    +0.000 OA
ENDROOT
TORSDOF 0
REMARK  Name = ../refined-set-2016/4omc/4omc_pocket.pdb
REMARK  257 active torsions:
REMARK  status: ('A' for Active; 'I' for Inactive)
REMARK    1  A    between atoms: _1  and  _3
REMARK    2  A    between atoms: _3  and  _4
REMARK    3  A    between atoms: _3  and  _6
REMARK    4  A    between atoms: _6  and  _7
REMARK    5  A    between atoms: _10  and  _12
REMARK    6  A    between atoms: _12  and  _13
REMARK    7  A    between atoms: _12  and  _15
REMARK    8  A    between atoms: _15  and  _16
REMARK    9  A    between atoms: _19  and  _21
REMARK   10  A    between atoms: _21  and  _22
REMARK   11  A    between atoms: _24  and  _26
REMARK   12  A    between atoms: _26  and  _27
REMARK   13  A    between atoms: _26  and  _29
REMARK   14  A    between atoms: _29  and  _30
REMARK   15  A    between atoms: _35  and  _37
REMARK   16  A    between atoms: _37  and  _38
REMARK   17  A    between atoms: _37  and  _40
REMARK   18  A    between atoms: _40  and  _41
REMARK   19  A    between atoms: _41  and  _42
REMARK   20  A    between atoms: _42  and  _43
REMARK   21  A    between atoms: _52  and  _54
REMARK   22  A    between atoms: _54  and  _55
REMARK   23  A    between atoms: _54  and  _57
REMARK   24  A    between atoms: _57  and  _58
REMARK   25  A    between atoms: _61  and  _63
REMARK   26  A    between atoms: _63  and  _64
REMARK   27  A    between atoms: _63  and  _66
REMARK   28  A    between atoms: _66  and  _67
REMARK   29  A    between atoms: _72  and  _74
REMARK   30  A    between atoms: _74  and  _75
REMARK   31  A    between atoms: _74  and  _77
REMARK   32  A    between atoms: _77  and  _78
REMARK   33  A    between atoms: _81  and  _83
REMARK   34  A    between atoms: _83  and  _84
REMARK   35  A    between atoms: _83  and  _86
REMARK   36  A    between atoms: _86  and  _87
REMARK   37  A    between atoms: _92  and  _94
REMARK   38  A    between atoms: _94  and  _95
REMARK   39  A    between atoms: _94  and  _97
REMARK   40  A    between atoms: _97  and  _98
REMARK   41  A    between atoms: _98  and  _99
REMARK   42  A    between atoms: _99  and  _100
REMARK   43  A    between atoms: _109  and  _111
REMARK   44  A    between atoms: _111  and  _112
REMARK   45  A    between atoms: _111  and  _114
REMARK   46  A    between atoms: _114  and  _115
REMARK   47  A    between atoms: _120  and  _122
REMARK   48  A    between atoms: _122  and  _123
REMARK   49  A    between atoms: _125  and  _127
REMARK   50  A    between atoms: _127  and  _128
REMARK   51  A    between atoms: _127  and  _130
REMARK   52  A    between atoms: _130  and  _131
REMARK   53  A    between atoms: _134  and  _136
REMARK   54  A    between atoms: _136  and  _137
REMARK   55  A    between atoms: _136  and  _139
REMARK   56  A    between atoms: _141  and  _143
REMARK   57  A    between atoms: _143  and  _144
REMARK   58  A    between atoms: _143  and  _146
REMARK   59  A    between atoms: _146  and  _147
REMARK   60  A    between atoms: _147  and  _148
REMARK   61  A    between atoms: _148  and  _149
REMARK   62  A    between atoms: _158  and  _160
REMARK   63  A    between atoms: _160  and  _161
REMARK   64  A    between atoms: _160  and  _163
REMARK   65  A    between atoms: _163  and  _164
REMARK   66  A    between atoms: _164  and  _165
REMARK   67  A    between atoms: _167  and  _169
REMARK   68  A    between atoms: _169  and  _170
REMARK   69  A    between atoms: _169  and  _172
REMARK   70  A    between atoms: _172  and  _173
REMARK   71  A    between atoms: _176  and  _178
REMARK   72  A    between atoms: _178  and  _179
REMARK   73  A    between atoms: _178  and  _181
REMARK   74  A    between atoms: _181  and  _182
REMARK   75  A    between atoms: _185  and  _187
REMARK   76  A    between atoms: _187  and  _188
REMARK   77  A    between atoms: _190  and  _192
REMARK   78  A    between atoms: _192  and  _193
REMARK   79  A    between atoms: _192  and  _195
REMARK   80  A    between atoms: _195  and  _196
REMARK   81  A    between atoms: _196  and  _197
REMARK   82  A    between atoms: _200  and  _202
REMARK   83  A    between atoms: _202  and  _203
REMARK   84  A    between atoms: _202  and  _205
REMARK   85  A    between atoms: _208  and  _210
REMARK   86  A    between atoms: _210  and  _211
REMARK   87  A    between atoms: _210  and  _213
REMARK   88  A    between atoms: _213  and  _214
REMARK   89  A    between atoms: _217  and  _219
REMARK   90  A    between atoms: _219  and  _220
REMARK   91  A    between atoms: _219  and  _222
REMARK   92  A    between atoms: _222  and  _223
REMARK   93  A    between atoms: _226  and  _228
REMARK   94  A    between atoms: _228  and  _229
REMARK   95  A    between atoms: _232  and  _234
REMARK   96  A    between atoms: _234  and  _235
REMARK   97  A    between atoms: _234  and  _237
REMARK   98  A    between atoms: _240  and  _242
REMARK   99  A    between atoms: _242  and  _243
REMARK  100  A    between atoms: _242  and  _245
REMARK  101  A    between atoms: _245  and  _246
REMARK  102  A    between atoms: _246  and  _247
REMARK  103  A    between atoms: _250  and  _252
REMARK  104  A    between atoms: _252  and  _253
REMARK  105  A    between atoms: _256  and  _258
REMARK  106  A    between atoms: _258  and  _259
REMARK  107  A    between atoms: _262  and  _264
REMARK  108  A    between atoms: _264  and  _265
REMARK  109  A    between atoms: _264  and  _267
REMARK  110  A    between atoms: _267  and  _268
REMARK  111  A    between atoms: _270  and  _272
REMARK  112  A    between atoms: _272  and  _273
REMARK  113  A    between atoms: _272  and  _275
REMARK  114  A    between atoms: _275  and  _276
REMARK  115  A    between atoms: _286  and  _288
REMARK  116  A    between atoms: _288  and  _289
REMARK  117  A    between atoms: _292  and  _293
REMARK  118  A    between atoms: _298  and  _300
REMARK  119  A    between atoms: _300  and  _301
REMARK  120  A    between atoms: _300  and  _303
REMARK  121  A    between atoms: _303  and  _304
REMARK  122  A    between atoms: _304  and  _305
REMARK  123  A    between atoms: _308  and  _310
REMARK  124  A    between atoms: _310  and  _311
REMARK  125  A    between atoms: _310  and  _313
REMARK  126  A    between atoms: _313  and  _314
REMARK  127  A    between atoms: _314  and  _315
REMARK  128  A    between atoms: _315  and  CA_629
REMARK  129  A    between atoms: _317  and  _319
REMARK  130  A    between atoms: _319  and  _320
REMARK  131  A    between atoms: _319  and  _322
REMARK  132  A    between atoms: _322  and  _323
REMARK  133  A    between atoms: _326  and  _328
REMARK  134  A    between atoms: _328  and  _329
REMARK  135  A    between atoms: _328  and  _331
REMARK  136  A    between atoms: _331  and  _332
REMARK  137  A    between atoms: _335  and  _337
REMARK  138  A    between atoms: _337  and  _338
REMARK  139  A    between atoms: _337  and  _340
REMARK  140  A    between atoms: _343  and  _345
REMARK  141  A    between atoms: _345  and  _346
REMARK  142  A    between atoms: _345  and  _348
REMARK  143  A    between atoms: _348  and  _349
REMARK  144  A    between atoms: _352  and  _354
REMARK  145  A    between atoms: _354  and  _355
REMARK  146  A    between atoms: _358  and  _359
REMARK  147  A    between atoms: _364  and  _366
REMARK  148  A    between atoms: _366  and  _367
REMARK  149  A    between atoms: _370  and  _372
REMARK  150  A    between atoms: _372  and  _373
REMARK  151  A    between atoms: _372  and  _375
REMARK  152  A    between atoms: _375  and  _376
REMARK  153  A    between atoms: _376  and  _377
REMARK  154  A    between atoms: _377  and  _378
REMARK  155  A    between atoms: _387  and  _389
REMARK  156  A    between atoms: _389  and  _390
REMARK  157  A    between atoms: _389  and  _392
REMARK  158  A    between atoms: _392  and  _393
REMARK  159  A    between atoms: _396  and  _398
REMARK  160  A    between atoms: _398  and  _399
REMARK  161  A    between atoms: _402  and  _404
REMARK  162  A    between atoms: _404  and  _405
REMARK  163  A    between atoms: _404  and  _407
REMARK  164  A    between atoms: _407  and  _408
REMARK  165  A    between atoms: _408  and  _409
REMARK  166  A    between atoms: _412  and  _414
REMARK  167  A    between atoms: _414  and  _415
REMARK  168  A    between atoms: _414  and  _417
REMARK  169  A    between atoms: _417  and  _418
REMARK  170  A    between atoms: _428  and  _430
REMARK  171  A    between atoms: _430  and  _431
REMARK  172  A    between atoms: _434  and  _436
REMARK  173  A    between atoms: _436  and  _437
REMARK  174  A    between atoms: _436  and  _439
REMARK  175  A    between atoms: _439  and  _440
REMARK  176  A    between atoms: _442  and  _444
REMARK  177  A    between atoms: _444  and  _445
REMARK  178  A    between atoms: _447  and  _449
REMARK  179  A    between atoms: _449  and  _450
REMARK  180  A    between atoms: _449  and  _452
REMARK  181  A    between atoms: _452  and  _453
REMARK  182  A    between atoms: _458  and  _460
REMARK  183  A    between atoms: _460  and  _461
REMARK  184  A    between atoms: _463  and  _465
REMARK  185  A    between atoms: _465  and  _466
REMARK  186  A    between atoms: _465  and  _468
REMARK  187  A    between atoms: _468  and  _469
REMARK  188  A    between atoms: _469  and  _471
REMARK  189  A    between atoms: _471  and  CA_629
REMARK  190  A    between atoms: _472  and  _474
REMARK  191  A    between atoms: _474  and  _475
REMARK  192  A    between atoms: _474  and  _477
REMARK  193  A    between atoms: _477  and  _478
REMARK  194  A    between atoms: _480  and  _482
REMARK  195  A    between atoms: _482  and  _483
REMARK  196  A    between atoms: _482  and  _485
REMARK  197  A    between atoms: _487  and  _489
REMARK  198  A    between atoms: _489  and  _490
REMARK  199  A    between atoms: _489  and  _492
REMARK  200  A    between atoms: _494  and  _496
REMARK  201  A    between atoms: _496  and  _497
REMARK  202  A    between atoms: _496  and  _499
REMARK  203  A    between atoms: _499  and  _500
REMARK  204  A    between atoms: _503  and  _505
REMARK  205  A    between atoms: _505  and  _506
REMARK  206  A    between atoms: _508  and  _510
REMARK  207  A    between atoms: _510  and  _511
REMARK  208  A    between atoms: _510  and  _513
REMARK  209  A    between atoms: _513  and  _514
REMARK  210  A    between atoms: _519  and  _520
REMARK  211  A    between atoms: _522  and  _524
REMARK  212  A    between atoms: _524  and  _525
REMARK  213  A    between atoms: _524  and  _527
REMARK  214  A    between atoms: _527  and  _528
REMARK  215  A    between atoms: _531  and  _533
REMARK  216  A    between atoms: _533  and  _534
REMARK  217  A    between atoms: _533  and  _536
REMARK  218  A    between atoms: _536  and  _537
REMARK  219  A    between atoms: _542  and  _544
REMARK  220  A    between atoms: _544  and  _545
REMARK  221  A    between atoms: _544  and  _547
REMARK  222  A    between atoms: _547  and  _548
REMARK  223  A    between atoms: _551  and  _553
REMARK  224  A    between atoms: _553  and  _554
REMARK  225  A    between atoms: _553  and  _556
REMARK  226  A    between atoms: _556  and  _557
REMARK  227  A    between atoms: _559  and  _561
REMARK  228  A    between atoms: _561  and  _562
REMARK  229  A    between atoms: _561  and  _564
REMARK  230  A    between atoms: _564  and  _565
REMARK  231  A    between atoms: _568  and  _570
REMARK  232  A    between atoms: _570  and  _571
REMARK  233  A    between atoms: _570  and  _573
REMARK  234  A    between atoms: _573  and  _574
REMARK  235  A    between atoms: _574  and  _575
REMARK  236  A    between atoms: _578  and  _580
REMARK  237  A    between atoms: _580  and  _581
REMARK  238  A    between atoms: _580  and  _583
REMARK  239  A    between atoms: _583  and  _584
REMARK  240  A    between atoms: _587  and  _589
REMARK  241  A    between atoms: _589  and  _590
REMARK  242  A    between atoms: _592  and  _594
REMARK  243  A    between atoms: _594  and  _595
REMARK  244  A    between atoms: _594  and  _597
REMARK  245  A    between atoms: _597  and  _598
REMARK  246  A    between atoms: _601  and  _603
REMARK  247  A    between atoms: _603  and  _604
REMARK  248  A    between atoms: _603  and  _606
REMARK  249  A    between atoms: _606  and  _607
REMARK  250  A    between atoms: _609  and  _611
REMARK  251  A    between atoms: _611  and  _612
REMARK  252  A    between atoms: _615  and  _617
REMARK  253  A    between atoms: _617  and  _618
REMARK  254  A    between atoms: _617  and  _620
REMARK  255  A    between atoms: _620  and  _621
REMARK  256  A    between atoms: _623  and  _625
REMARK  257  A    between atoms: _625  and  _626
REMARK                            x       y       z     vdW  Elec       q    Type
REMARK                         _______ _______ _______ _____ _____    ______ ____
ROOT
ATOM      1  O   HOH     1      33.260  39.940   1.011  0.00  0.00    +0.000 OA
ENDROOT
TORSDOF 0
REMARK  Name = ../refined-set-2016/4omc/4omc_pocket.pdb
REMARK  257 active torsions:
REMARK  status: ('A' for Active; 'I' for Inactive)
REMARK    1  A    between atoms: _1  and  _3
REMARK    2  A    between atoms: _3  and  _4
REMARK    3  A    between atoms: _3  and  _6
REMARK    4  A    between atoms: _6  and  _7
REMARK    5  A    between atoms: _10  and  _12
REMARK    6  A    between atoms: _12  and  _13
REMARK    7  A    between atoms: _12  and  _15
REMARK    8  A    between atoms: _15  and  _16
REMARK    9  A    between atoms: _19  and  _21
REMARK   10  A    between atoms: _21  and  _22
REMARK   11  A    between atoms: _24  and  _26
REMARK   12  A    between atoms: _26  and  _27
REMARK   13  A    between atoms: _26  and  _29
REMARK   14  A    between atoms: _29  and  _30
REMARK   15  A    between atoms: _35  and  _37
REMARK   16  A    between atoms: _37  and  _38
REMARK   17  A    between atoms: _37  and  _40
REMARK   18  A    between atoms: _40  and  _41
REMARK   19  A    between atoms: _41  and  _42
REMARK   20  A    between atoms: _42  and  _43
REMARK   21  A    between atoms: _52  and  _54
REMARK   22  A    between atoms: _54  and  _55
REMARK   23  A    between atoms: _54  and  _57
REMARK   24  A    between atoms: _57  and  _58
REMARK   25  A    between atoms: _61  and  _63
REMARK   26  A    between atoms: _63  and  _64
REMARK   27  A    between atoms: _63  and  _66
REMARK   28  A    between atoms: _66  and  _67
REMARK   29  A    between atoms: _72  and  _74
REMARK   30  A    between atoms: _74  and  _75
REMARK   31  A    between atoms: _74  and  _77
REMARK   32  A    between atoms: _77  and  _78
REMARK   33  A    between atoms: _81  and  _83
REMARK   34  A    between atoms: _83  and  _84
REMARK   35  A    between atoms: _83  and  _86
REMARK   36  A    between atoms: _86  and  _87
REMARK   37  A    between atoms: _92  and  _94
REMARK   38  A    between atoms: _94  and  _95
REMARK   39  A    between atoms: _94  and  _97
REMARK   40  A    between atoms: _97  and  _98
REMARK   41  A    between atoms: _98  and  _99
REMARK   42  A    between atoms: _99  and  _100
REMARK   43  A    between atoms: _109  and  _111
REMARK   44  A    between atoms: _111  and  _112
REMARK   45  A    between atoms: _111  and  _114
REMARK   46  A    between atoms: _114  and  _115
REMARK   47  A    between atoms: _120  and  _122
REMARK   48  A    between atoms: _122  and  _123
REMARK   49  A    between atoms: _125  and  _127
REMARK   50  A    between atoms: _127  and  _128
REMARK   51  A    between atoms: _127  and  _130
REMARK   52  A    between atoms: _130  and  _131
REMARK   53  A    between atoms: _134  and  _136
REMARK   54  A    between atoms: _136  and  _137
REMARK   55  A    between atoms: _136  and  _139
REMARK   56  A    between atoms: _141  and  _143
REMARK   57  A    between atoms: _143  and  _144
REMARK   58  A    between atoms: _143  and  _146
REMARK   59  A    between atoms: _146  and  _147
REMARK   60  A    between atoms: _147  and  _148
REMARK   61  A    between atoms: _148  and  _149
REMARK   62  A    between atoms: _158  and  _160
REMARK   63  A    between atoms: _160  and  _161
REMARK   64  A    between atoms: _160  and  _163
REMARK   65  A    between atoms: _163  and  _164
REMARK   66  A    between atoms: _164  and  _165
REMARK   67  A    between atoms: _167  and  _169
REMARK   68  A    between atoms: _169  and  _170
REMARK   69  A    between atoms: _169  and  _172
REMARK   70  A    between atoms: _172  and  _173
REMARK   71  A    between atoms: _176  and  _178
REMARK   72  A    between atoms: _178  and  _179
REMARK   73  A    between atoms: _178  and  _181
REMARK   74  A    between atoms: _181  and  _182
REMARK   75  A    between atoms: _185  and  _187
REMARK   76  A    between atoms: _187  and  _188
REMARK   77  A    between atoms: _190  and  _192
REMARK   78  A    between atoms: _192  and  _193
REMARK   79  A    between atoms: _192  and  _195
REMARK   80  A    between atoms: _195  and  _196
REMARK   81  A    between atoms: _196  and  _197
REMARK   82  A    between atoms: _200  and  _202
REMARK   83  A    between atoms: _202  and  _203
REMARK   84  A    between atoms: _202  and  _205
REMARK   85  A    between atoms: _208  and  _210
REMARK   86  A    between atoms: _210  and  _211
REMARK   87  A    between atoms: _210  and  _213
REMARK   88  A    between atoms: _213  and  _214
REMARK   89  A    between atoms: _217  and  _219
REMARK   90  A    between atoms: _219  and  _220
REMARK   91  A    between atoms: _219  and  _222
REMARK   92  A    between atoms: _222  and  _223
REMARK   93  A    between atoms: _226  and  _228
REMARK   94  A    between atoms: _228  and  _229
REMARK   95  A    between atoms: _232  and  _234
REMARK   96  A    between atoms: _234  and  _235
REMARK   97  A    between atoms: _234  and  _237
REMARK   98  A    between atoms: _240  and  _242
REMARK   99  A    between atoms: _242  and  _243
REMARK  100  A    between atoms: _242  and  _245
REMARK  101  A    between atoms: _245  and  _246
REMARK  102  A    between atoms: _246  and  _247
REMARK  103  A    between atoms: _250  and  _252
REMARK  104  A    between atoms: _252  and  _253
REMARK  105  A    between atoms: _256  and  _258
REMARK  106  A    between atoms: _258  and  _259
REMARK  107  A    between atoms: _262  and  _264
REMARK  108  A    between atoms: _264  and  _265
REMARK  109  A    between atoms: _264  and  _267
REMARK  110  A    between atoms: _267  and  _268
REMARK  111  A    between atoms: _270  and  _272
REMARK  112  A    between atoms: _272  and  _273
REMARK  113  A    between atoms: _272  and  _275
REMARK  114  A    between atoms: _275  and  _276
REMARK  115  A    between atoms: _286  and  _288
REMARK  116  A    between atoms: _288  and  _289
REMARK  117  A    between atoms: _292  and  _293
REMARK  118  A    between atoms: _298  and  _300
REMARK  119  A    between atoms: _300  and  _301
REMARK  120  A    between atoms: _300  and  _303
REMARK  121  A    between atoms: _303  and  _304
REMARK  122  A    between atoms: _304  and  _305
REMARK  123  A    between atoms: _308  and  _310
REMARK  124  A    between atoms: _310  and  _311
REMARK  125  A    between atoms: _310  and  _313
REMARK  126  A    between atoms: _313  and  _314
REMARK  127  A    between atoms: _314  and  _315
REMARK  128  A    between atoms: _315  and  CA_629
REMARK  129  A    between atoms: _317  and  _319
REMARK  130  A    between atoms: _319  and  _320
REMARK  131  A    between atoms: _319  and  _322
REMARK  132  A    between atoms: _322  and  _323
REMARK  133  A    between atoms: _326  and  _328
REMARK  134  A    between atoms: _328  and  _329
REMARK  135  A    between atoms: _328  and  _331
REMARK  136  A    between atoms: _331  and  _332
REMARK  137  A    between atoms: _335  and  _337
REMARK  138  A    between atoms: _337  and  _338
REMARK  139  A    between atoms: _337  and  _340
REMARK  140  A    between atoms: _343  and  _345
REMARK  141  A    between atoms: _345  and  _346
REMARK  142  A    between atoms: _345  and  _348
REMARK  143  A    between atoms: _348  and  _349
REMARK  144  A    between atoms: _352  and  _354
REMARK  145  A    between atoms: _354  and  _355
REMARK  146  A    between atoms: _358  and  _359
REMARK  147  A    between atoms: _364  and  _366
REMARK  148  A    between atoms: _366  and  _367
REMARK  149  A    between atoms: _370  and  _372
REMARK  150  A    between atoms: _372  and  _373
REMARK  151  A    between atoms: _372  and  _375
REMARK  152  A    between atoms: _375  and  _376
REMARK  153  A    between atoms: _376  and  _377
REMARK  154  A    between atoms: _377  and  _378
REMARK  155  A    between atoms: _387  and  _389
REMARK  156  A    between atoms: _389  and  _390
REMARK  157  A    between atoms: _389  and  _392
REMARK  158  A    between atoms: _392  and  _393
REMARK  159  A    between atoms: _396  and  _398
REMARK  160  A    between atoms: _398  and  _399
REMARK  161  A    between atoms: _402  and  _404
REMARK  162  A    between atoms: _404  and  _405
REMARK  163  A    between atoms: _404  and  _407
REMARK  164  A    between atoms: _407  and  _408
REMARK  165  A    between atoms: _408  and  _409
REMARK  166  A    between atoms: _412  and  _414
REMARK  167  A    between atoms: _414  and  _415
REMARK  168  A    between atoms: _414  and  _417
REMARK  169  A    between atoms: _417  and  _418
REMARK  170  A    between atoms: _428  and  _430
REMARK  171  A    between atoms: _430  and  _431
REMARK  172  A    between atoms: _434  and  _436
REMARK  173  A    between atoms: _436  and  _437
REMARK  174  A    between atoms: _436  and  _439
REMARK  175  A    between atoms: _439  and  _440
REMARK  176  A    between atoms: _442  and  _444
REMARK  177  A    between atoms: _444  and  _445
REMARK  178  A    between atoms: _447  and  _449
REMARK  179  A    between atoms: _449  and  _450
REMARK  180  A    between atoms: _449  and  _452
REMARK  181  A    between atoms: _452  and  _453
REMARK  182  A    between atoms: _458  and  _460
REMARK  183  A    between atoms: _460  and  _461
REMARK  184  A    between atoms: _463  and  _465
REMARK  185  A    between atoms: _465  and  _466
REMARK  186  A    between atoms: _465  and  _468
REMARK  187  A    between atoms: _468  and  _469
REMARK  188  A    between atoms: _469  and  _471
REMARK  189  A    between atoms: _471  and  CA_629
REMARK  190  A    between atoms: _472  and  _474
REMARK  191  A    between atoms: _474  and  _475
REMARK  192  A    between atoms: _474  and  _477
REMARK  193  A    between atoms: _477  and  _478
REMARK  194  A    between atoms: _480  and  _482
REMARK  195  A    between atoms: _482  and  _483
REMARK  196  A    between atoms: _482  and  _485
REMARK  197  A    between atoms: _487  and  _489
REMARK  198  A    between atoms: _489  and  _490
REMARK  199  A    between atoms: _489  and  _492
REMARK  200  A    between atoms: _494  and  _496
REMARK  201  A    between atoms: _496  and  _497
REMARK  202  A    between atoms: _496  and  _499
REMARK  203  A    between atoms: _499  and  _500
REMARK  204  A    between atoms: _503  and  _505
REMARK  205  A    between atoms: _505  and  _506
REMARK  206  A    between atoms: _508  and  _510
REMARK  207  A    between atoms: _510  and  _511
REMARK  208  A    between atoms: _510  and  _513
REMARK  209  A    between atoms: _513  and  _514
REMARK  210  A    between atoms: _519  and  _520
REMARK  211  A    between atoms: _522  and  _524
REMARK  212  A    between atoms: _524  and  _525
REMARK  213  A    between atoms: _524  and  _527
REMARK  214  A    between atoms: _527  and  _528
REMARK  215  A    between atoms: _531  and  _533
REMARK  216  A    between atoms: _533  and  _534
REMARK  217  A    between atoms: _533  and  _536
REMARK  218  A    between atoms: _536  and  _537
REMARK  219  A    between atoms: _542  and  _544
REMARK  220  A    between atoms: _544  and  _545
REMARK  221  A    between atoms: _544  and  _547
REMARK  222  A    between atoms: _547  and  _548
REMARK  223  A    between atoms: _551  and  _553
REMARK  224  A    between atoms: _553  and  _554
REMARK  225  A    between atoms: _553  and  _556
REMARK  226  A    between atoms: _556  and  _557
REMARK  227  A    between atoms: _559  and  _561
REMARK  228  A    between atoms: _561  and  _562
REMARK  229  A    between atoms: _561  and  _564
REMARK  230  A    between atoms: _564  and  _565
REMARK  231  A    between atoms: _568  and  _570
REMARK  232  A    between atoms: _570  and  _571
REMARK  233  A    between atoms: _570  and  _573
REMARK  234  A    between atoms: _573  and  _574
REMARK  235  A    between atoms: _574  and  _575
REMARK  236  A    between atoms: _578  and  _580
REMARK  237  A    between atoms: _580  and  _581
REMARK  238  A    between atoms: _580  and  _583
REMARK  239  A    between atoms: _583  and  _584
REMARK  240  A    between atoms: _587  and  _589
REMARK  241  A    between atoms: _589  and  _590
REMARK  242  A    between atoms: _592  and  _594
REMARK  243  A    between atoms: _594  and  _595
REMARK  244  A    between atoms: _594  and  _597
REMARK  245  A    between atoms: _597  and  _598
REMARK  246  A    between atoms: _601  and  _603
REMARK  247  A    between atoms: _603  and  _604
REMARK  248  A    between atoms: _603  and  _606
REMARK  249  A    between atoms: _606  and  _607
REMARK  250  A    between atoms: _609  and  _611
REMARK  251  A    between atoms: _611  and  _612
REMARK  252  A    between atoms: _615  and  _617
REMARK  253  A    between atoms: _617  and  _618
REMARK  254  A    between atoms: _617  and  _620
REMARK  255  A    between atoms: _620  and  _621
REMARK  256  A    between atoms: _623  and  _625
REMARK  257  A    between atoms: _625  and  _626
REMARK                            x       y       z     vdW  Elec       q    Type
REMARK                         _______ _______ _______ _____ _____    ______ ____
ROOT
ATOM      1  O   HOH     1      15.988  20.168  -2.517  0.00  0.00    +0.000 OA
ENDROOT
TORSDOF 0
REMARK  Name = ../refined-set-2016/4omc/4omc_pocket.pdb
REMARK  257 active torsions:
REMARK  status: ('A' for Active; 'I' for Inactive)
REMARK    1  A    between atoms: _1  and  _3
REMARK    2  A    between atoms: _3  and  _4
REMARK    3  A    between atoms: _3  and  _6
REMARK    4  A    between atoms: _6  and  _7
REMARK    5  A    between atoms: _10  and  _12
REMARK    6  A    between atoms: _12  and  _13
REMARK    7  A    between atoms: _12  and  _15
REMARK    8  A    between atoms: _15  and  _16
REMARK    9  A    between atoms: _19  and  _21
REMARK   10  A    between atoms: _21  and  _22
REMARK   11  A    between atoms: _24  and  _26
REMARK   12  A    between atoms: _26  and  _27
REMARK   13  A    between atoms: _26  and  _29
REMARK   14  A    between atoms: _29  and  _30
REMARK   15  A    between atoms: _35  and  _37
REMARK   16  A    between atoms: _37  and  _38
REMARK   17  A    between atoms: _37  and  _40
REMARK   18  A    between atoms: _40  and  _41
REMARK   19  A    between atoms: _41  and  _42
REMARK   20  A    between atoms: _42  and  _43
REMARK   21  A    between atoms: _52  and  _54
REMARK   22  A    between atoms: _54  and  _55
REMARK   23  A    between atoms: _54  and  _57
REMARK   24  A    between atoms: _57  and  _58
REMARK   25  A    between atoms: _61  and  _63
REMARK   26  A    between atoms: _63  and  _64
REMARK   27  A    between atoms: _63  and  _66
REMARK   28  A    between atoms: _66  and  _67
REMARK   29  A    between atoms: _72  and  _74
REMARK   30  A    between atoms: _74  and  _75
REMARK   31  A    between atoms: _74  and  _77
REMARK   32  A    between atoms: _77  and  _78
REMARK   33  A    between atoms: _81  and  _83
REMARK   34  A    between atoms: _83  and  _84
REMARK   35  A    between atoms: _83  and  _86
REMARK   36  A    between atoms: _86  and  _87
REMARK   37  A    between atoms: _92  and  _94
REMARK   38  A    between atoms: _94  and  _95
REMARK   39  A    between atoms: _94  and  _97
REMARK   40  A    between atoms: _97  and  _98
REMARK   41  A    between atoms: _98  and  _99
REMARK   42  A    between atoms: _99  and  _100
REMARK   43  A    between atoms: _109  and  _111
REMARK   44  A    between atoms: _111  and  _112
REMARK   45  A    between atoms: _111  and  _114
REMARK   46  A    between atoms: _114  and  _115
REMARK   47  A    between atoms: _120  and  _122
REMARK   48  A    between atoms: _122  and  _123
REMARK   49  A    between atoms: _125  and  _127
REMARK   50  A    between atoms: _127  and  _128
REMARK   51  A    between atoms: _127  and  _130
REMARK   52  A    between atoms: _130  and  _131
REMARK   53  A    between atoms: _134  and  _136
REMARK   54  A    between atoms: _136  and  _137
REMARK   55  A    between atoms: _136  and  _139
REMARK   56  A    between atoms: _141  and  _143
REMARK   57  A    between atoms: _143  and  _144
REMARK   58  A    between atoms: _143  and  _146
REMARK   59  A    between atoms: _146  and  _147
REMARK   60  A    between atoms: _147  and  _148
REMARK   61  A    between atoms: _148  and  _149
REMARK   62  A    between atoms: _158  and  _160
REMARK   63  A    between atoms: _160  and  _161
REMARK   64  A    between atoms: _160  and  _163
REMARK   65  A    between atoms: _163  and  _164
REMARK   66  A    between atoms: _164  and  _165
REMARK   67  A    between atoms: _167  and  _169
REMARK   68  A    between atoms: _169  and  _170
REMARK   69  A    between atoms: _169  and  _172
REMARK   70  A    between atoms: _172  and  _173
REMARK   71  A    between atoms: _176  and  _178
REMARK   72  A    between atoms: _178  and  _179
REMARK   73  A    between atoms: _178  and  _181
REMARK   74  A    between atoms: _181  and  _182
REMARK   75  A    between atoms: _185  and  _187
REMARK   76  A    between atoms: _187  and  _188
REMARK   77  A    between atoms: _190  and  _192
REMARK   78  A    between atoms: _192  and  _193
REMARK   79  A    between atoms: _192  and  _195
REMARK   80  A    between atoms: _195  and  _196
REMARK   81  A    between atoms: _196  and  _197
REMARK   82  A    between atoms: _200  and  _202
REMARK   83  A    between atoms: _202  and  _203
REMARK   84  A    between atoms: _202  and  _205
REMARK   85  A    between atoms: _208  and  _210
REMARK   86  A    between atoms: _210  and  _211
REMARK   87  A    between atoms: _210  and  _213
REMARK   88  A    between atoms: _213  and  _214
REMARK   89  A    between atoms: _217  and  _219
REMARK   90  A    between atoms: _219  and  _220
REMARK   91  A    between atoms: _219  and  _222
REMARK   92  A    between atoms: _222  and  _223
REMARK   93  A    between atoms: _226  and  _228
REMARK   94  A    between atoms: _228  and  _229
REMARK   95  A    between atoms: _232  and  _234
REMARK   96  A    between atoms: _234  and  _235
REMARK   97  A    between atoms: _234  and  _237
REMARK   98  A    between atoms: _240  and  _242
REMARK   99  A    between atoms: _242  and  _243
REMARK  100  A    between atoms: _242  and  _245
REMARK  101  A    between atoms: _245  and  _246
REMARK  102  A    between atoms: _246  and  _247
REMARK  103  A    between atoms: _250  and  _252
REMARK  104  A    between atoms: _252  and  _253
REMARK  105  A    between atoms: _256  and  _258
REMARK  106  A    between atoms: _258  and  _259
REMARK  107  A    between atoms: _262  and  _264
REMARK  108  A    between atoms: _264  and  _265
REMARK  109  A    between atoms: _264  and  _267
REMARK  110  A    between atoms: _267  and  _268
REMARK  111  A    between atoms: _270  and  _272
REMARK  112  A    between atoms: _272  and  _273
REMARK  113  A    between atoms: _272  and  _275
REMARK  114  A    between atoms: _275  and  _276
REMARK  115  A    between atoms: _286  and  _288
REMARK  116  A    between atoms: _288  and  _289
REMARK  117  A    between atoms: _292  and  _293
REMARK  118  A    between atoms: _298  and  _300
REMARK  119  A    between atoms: _300  and  _301
REMARK  120  A    between atoms: _300  and  _303
REMARK  121  A    between atoms: _303  and  _304
REMARK  122  A    between atoms: _304  and  _305
REMARK  123  A    between atoms: _308  and  _310
REMARK  124  A    between atoms: _310  and  _311
REMARK  125  A    between atoms: _310  and  _313
REMARK  126  A    between atoms: _313  and  _314
REMARK  127  A    between atoms: _314  and  _315
REMARK  128  A    between atoms: _315  and  CA_629
REMARK  129  A    between atoms: _317  and  _319
REMARK  130  A    between atoms: _319  and  _320
REMARK  131  A    between atoms: _319  and  _322
REMARK  132  A    between atoms: _322  and  _323
REMARK  133  A    between atoms: _326  and  _328
REMARK  134  A    between atoms: _328  and  _329
REMARK  135  A    between atoms: _328  and  _331
REMARK  136  A    between atoms: _331  and  _332
REMARK  137  A    between atoms: _335  and  _337
REMARK  138  A    between atoms: _337  and  _338
REMARK  139  A    between atoms: _337  and  _340
REMARK  140  A    between atoms: _343  and  _345
REMARK  141  A    between atoms: _345  and  _346
REMARK  142  A    between atoms: _345  and  _348
REMARK  143  A    between atoms: _348  and  _349
REMARK  144  A    between atoms: _352  and  _354
REMARK  145  A    between atoms: _354  and  _355
REMARK  146  A    between atoms: _358  and  _359
REMARK  147  A    between atoms: _364  and  _366
REMARK  148  A    between atoms: _366  and  _367
REMARK  149  A    between atoms: _370  and  _372
REMARK  150  A    between atoms: _372  and  _373
REMARK  151  A    between atoms: _372  and  _375
REMARK  152  A    between atoms: _375  and  _376
REMARK  153  A    between atoms: _376  and  _377
REMARK  154  A    between atoms: _377  and  _378
REMARK  155  A    between atoms: _387  and  _389
REMARK  156  A    between atoms: _389  and  _390
REMARK  157  A    between atoms: _389  and  _392
REMARK  158  A    between atoms: _392  and  _393
REMARK  159  A    between atoms: _396  and  _398
REMARK  160  A    between atoms: _398  and  _399
REMARK  161  A    between atoms: _402  and  _404
REMARK  162  A    between atoms: _404  and  _405
REMARK  163  A    between atoms: _404  and  _407
REMARK  164  A    between atoms: _407  and  _408
REMARK  165  A    between atoms: _408  and  _409
REMARK  166  A    between atoms: _412  and  _414
REMARK  167  A    between atoms: _414  and  _415
REMARK  168  A    between atoms: _414  and  _417
REMARK  169  A    between atoms: _417  and  _418
REMARK  170  A    between atoms: _428  and  _430
REMARK  171  A    between atoms: _430  and  _431
REMARK  172  A    between atoms: _434  and  _436
REMARK  173  A    between atoms: _436  and  _437
REMARK  174  A    between atoms: _436  and  _439
REMARK  175  A    between atoms: _439  and  _440
REMARK  176  A    between atoms: _442  and  _444
REMARK  177  A    between atoms: _444  and  _445
REMARK  178  A    between atoms: _447  and  _449
REMARK  179  A    between atoms: _449  and  _450
REMARK  180  A    between atoms: _449  and  _452
REMARK  181  A    between atoms: _452  and  _453
REMARK  182  A    between atoms: _458  and  _460
REMARK  183  A    between atoms: _460  and  _461
REMARK  184  A    between atoms: _463  and  _465
REMARK  185  A    between atoms: _465  and  _466
REMARK  186  A    between atoms: _465  and  _468
REMARK  187  A    between atoms: _468  and  _469
REMARK  188  A    between atoms: _469  and  _471
REMARK  189  A    between atoms: _471  and  CA_629
REMARK  190  A    between atoms: _472  and  _474
REMARK  191  A    between atoms: _474  and  _475
REMARK  192  A    between atoms: _474  and  _477
REMARK  193  A    between atoms: _477  and  _478
REMARK  194  A    between atoms: _480  and  _482
REMARK  195  A    between atoms: _482  and  _483
REMARK  196  A    between atoms: _482  and  _485
REMARK  197  A    between atoms: _487  and  _489
REMARK  198  A    between atoms: _489  and  _490
REMARK  199  A    between atoms: _489  and  _492
REMARK  200  A    between atoms: _494  and  _496
REMARK  201  A    between atoms: _496  and  _497
REMARK  202  A    between atoms: _496  and  _499
REMARK  203  A    between atoms: _499  and  _500
REMARK  204  A    between atoms: _503  and  _505
REMARK  205  A    between atoms: _505  and  _506
REMARK  206  A    between atoms: _508  and  _510
REMARK  207  A    between atoms: _510  and  _511
REMARK  208  A    between atoms: _510  and  _513
REMARK  209  A    between atoms: _513  and  _514
REMARK  210  A    between atoms: _519  and  _520
REMARK  211  A    between atoms: _522  and  _524
REMARK  212  A    between atoms: _524  and  _525
REMARK  213  A    between atoms: _524  and  _527
REMARK  214  A    between atoms: _527  and  _528
REMARK  215  A    between atoms: _531  and  _533
REMARK  216  A    between atoms: _533  and  _534
REMARK  217  A    between atoms: _533  and  _536
REMARK  218  A    between atoms: _536  and  _537
REMARK  219  A    between atoms: _542  and  _544
REMARK  220  A    between atoms: _544  and  _545
REMARK  221  A    between atoms: _544  and  _547
REMARK  222  A    between atoms: _547  and  _548
REMARK  223  A    between atoms: _551  and  _553
REMARK  224  A    between atoms: _553  and  _554
REMARK  225  A    between atoms: _553  and  _556
REMARK  226  A    between atoms: _556  and  _557
REMARK  227  A    between atoms: _559  and  _561
REMARK  228  A    between atoms: _561  and  _562
REMARK  229  A    between atoms: _561  and  _564
REMARK  230  A    between atoms: _564  and  _565
REMARK  231  A    between atoms: _568  and  _570
REMARK  232  A    between atoms: _570  and  _571
REMARK  233  A    between atoms: _570  and  _573
REMARK  234  A    between atoms: _573  and  _574
REMARK  235  A    between atoms: _574  and  _575
REMARK  236  A    between atoms: _578  and  _580
REMARK  237  A    between atoms: _580  and  _581
REMARK  238  A    between atoms: _580  and  _583
REMARK  239  A    between atoms: _583  and  _584
REMARK  240  A    between atoms: _587  and  _589
REMARK  241  A    between atoms: _589  and  _590
REMARK  242  A    between atoms: _592  and  _594
REMARK  243  A    between atoms: _594  and  _595
REMARK  244  A    between atoms: _594  and  _597
REMARK  245  A    between atoms: _597  and  _598
REMARK  246  A    between atoms: _601  and  _603
REMARK  247  A    between atoms: _603  and  _604
REMARK  248  A    between atoms: _603  and  _606
REMARK  249  A    between atoms: _606  and  _607
REMARK  250  A    between atoms: _609  and  _611
REMARK  251  A    between atoms: _611  and  _612
REMARK  252  A    between atoms: _615  and  _617
REMARK  253  A    between atoms: _617  and  _618
REMARK  254  A    between atoms: _617  and  _620
REMARK  255  A    between atoms: _620  and  _621
REMARK  256  A    between atoms: _623  and  _625
REMARK  257  A    between atoms: _625  and  _626
REMARK                            x       y       z     vdW  Elec       q    Type
REMARK                         _______ _______ _______ _____ _____    ______ ____
ROOT
ATOM      1  O   HOH     1      19.929  23.381  -6.807  0.00  0.00    +0.000 OA
ENDROOT
TORSDOF 0
REMARK  Name = ../refined-set-2016/4omc/4omc_pocket.pdb
REMARK  257 active torsions:
REMARK  status: ('A' for Active; 'I' for Inactive)
REMARK    1  A    between atoms: _1  and  _3
REMARK    2  A    between atoms: _3  and  _4
REMARK    3  A    between atoms: _3  and  _6
REMARK    4  A    between atoms: _6  and  _7
REMARK    5  A    between atoms: _10  and  _12
REMARK    6  A    between atoms: _12  and  _13
REMARK    7  A    between atoms: _12  and  _15
REMARK    8  A    between atoms: _15  and  _16
REMARK    9  A    between atoms: _19  and  _21
REMARK   10  A    between atoms: _21  and  _22
REMARK   11  A    between atoms: _24  and  _26
REMARK   12  A    between atoms: _26  and  _27
REMARK   13  A    between atoms: _26  and  _29
REMARK   14  A    between atoms: _29  and  _30
REMARK   15  A    between atoms: _35  and  _37
REMARK   16  A    between atoms: _37  and  _38
REMARK   17  A    between atoms: _37  and  _40
REMARK   18  A    between atoms: _40  and  _41
REMARK   19  A    between atoms: _41  and  _42
REMARK   20  A    between atoms: _42  and  _43
REMARK   21  A    between atoms: _52  and  _54
REMARK   22  A    between atoms: _54  and  _55
REMARK   23  A    between atoms: _54  and  _57
REMARK   24  A    between atoms: _57  and  _58
REMARK   25  A    between atoms: _61  and  _63
REMARK   26  A    between atoms: _63  and  _64
REMARK   27  A    between atoms: _63  and  _66
REMARK   28  A    between atoms: _66  and  _67
REMARK   29  A    between atoms: _72  and  _74
REMARK   30  A    between atoms: _74  and  _75
REMARK   31  A    between atoms: _74  and  _77
REMARK   32  A    between atoms: _77  and  _78
REMARK   33  A    between atoms: _81  and  _83
REMARK   34  A    between atoms: _83  and  _84
REMARK   35  A    between atoms: _83  and  _86
REMARK   36  A    between atoms: _86  and  _87
REMARK   37  A    between atoms: _92  and  _94
REMARK   38  A    between atoms: _94  and  _95
REMARK   39  A    between atoms: _94  and  _97
REMARK   40  A    between atoms: _97  and  _98
REMARK   41  A    between atoms: _98  and  _99
REMARK   42  A    between atoms: _99  and  _100
REMARK   43  A    between atoms: _109  and  _111
REMARK   44  A    between atoms: _111  and  _112
REMARK   45  A    between atoms: _111  and  _114
REMARK   46  A    between atoms: _114  and  _115
REMARK   47  A    between atoms: _120  and  _122
REMARK   48  A    between atoms: _122  and  _123
REMARK   49  A    between atoms: _125  and  _127
REMARK   50  A    between atoms: _127  and  _128
REMARK   51  A    between atoms: _127  and  _130
REMARK   52  A    between atoms: _130  and  _131
REMARK   53  A    between atoms: _134  and  _136
REMARK   54  A    between atoms: _136  and  _137
REMARK   55  A    between atoms: _136  and  _139
REMARK   56  A    between atoms: _141  and  _143
REMARK   57  A    between atoms: _143  and  _144
REMARK   58  A    between atoms: _143  and  _146
REMARK   59  A    between atoms: _146  and  _147
REMARK   60  A    between atoms: _147  and  _148
REMARK   61  A    between atoms: _148  and  _149
REMARK   62  A    between atoms: _158  and  _160
REMARK   63  A    between atoms: _160  and  _161
REMARK   64  A    between atoms: _160  and  _163
REMARK   65  A    between atoms: _163  and  _164
REMARK   66  A    between atoms: _164  and  _165
REMARK   67  A    between atoms: _167  and  _169
REMARK   68  A    between atoms: _169  and  _170
REMARK   69  A    between atoms: _169  and  _172
REMARK   70  A    between atoms: _172  and  _173
REMARK   71  A    between atoms: _176  and  _178
REMARK   72  A    between atoms: _178  and  _179
REMARK   73  A    between atoms: _178  and  _181
REMARK   74  A    between atoms: _181  and  _182
REMARK   75  A    between atoms: _185  and  _187
REMARK   76  A    between atoms: _187  and  _188
REMARK   77  A    between atoms: _190  and  _192
REMARK   78  A    between atoms: _192  and  _193
REMARK   79  A    between atoms: _192  and  _195
REMARK   80  A    between atoms: _195  and  _196
REMARK   81  A    between atoms: _196  and  _197
REMARK   82  A    between atoms: _200  and  _202
REMARK   83  A    between atoms: _202  and  _203
REMARK   84  A    between atoms: _202  and  _205
REMARK   85  A    between atoms: _208  and  _210
REMARK   86  A    between atoms: _210  and  _211
REMARK   87  A    between atoms: _210  and  _213
REMARK   88  A    between atoms: _213  and  _214
REMARK   89  A    between atoms: _217  and  _219
REMARK   90  A    between atoms: _219  and  _220
REMARK   91  A    between atoms: _219  and  _222
REMARK   92  A    between atoms: _222  and  _223
REMARK   93  A    between atoms: _226  and  _228
REMARK   94  A    between atoms: _228  and  _229
REMARK   95  A    between atoms: _232  and  _234
REMARK   96  A    between atoms: _234  and  _235
REMARK   97  A    between atoms: _234  and  _237
REMARK   98  A    between atoms: _240  and  _242
REMARK   99  A    between atoms: _242  and  _243
REMARK  100  A    between atoms: _242  and  _245
REMARK  101  A    between atoms: _245  and  _246
REMARK  102  A    between atoms: _246  and  _247
REMARK  103  A    between atoms: _250  and  _252
REMARK  104  A    between atoms: _252  and  _253
REMARK  105  A    between atoms: _256  and  _258
REMARK  106  A    between atoms: _258  and  _259
REMARK  107  A    between atoms: _262  and  _264
REMARK  108  A    between atoms: _264  and  _265
REMARK  109  A    between atoms: _264  and  _267
REMARK  110  A    between atoms: _267  and  _268
REMARK  111  A    between atoms: _270  and  _272
REMARK  112  A    between atoms: _272  and  _273
REMARK  113  A    between atoms: _272  and  _275
REMARK  114  A    between atoms: _275  and  _276
REMARK  115  A    between atoms: _286  and  _288
REMARK  116  A    between atoms: _288  and  _289
REMARK  117  A    between atoms: _292  and  _293
REMARK  118  A    between atoms: _298  and  _300
REMARK  119  A    between atoms: _300  and  _301
REMARK  120  A    between atoms: _300  and  _303
REMARK  121  A    between atoms: _303  and  _304
REMARK  122  A    between atoms: _304  and  _305
REMARK  123  A    between atoms: _308  and  _310
REMARK  124  A    between atoms: _310  and  _311
REMARK  125  A    between atoms: _310  and  _313
REMARK  126  A    between atoms: _313  and  _314
REMARK  127  A    between atoms: _314  and  _315
REMARK  128  A    between atoms: _315  and  CA_629
REMARK  129  A    between atoms: _317  and  _319
REMARK  130  A    between atoms: _319  and  _320
REMARK  131  A    between atoms: _319  and  _322
REMARK  132  A    between atoms: _322  and  _323
REMARK  133  A    between atoms: _326  and  _328
REMARK  134  A    between atoms: _328  and  _329
REMARK  135  A    between atoms: _328  and  _331
REMARK  136  A    between atoms: _331  and  _332
REMARK  137  A    between atoms: _335  and  _337
REMARK  138  A    between atoms: _337  and  _338
REMARK  139  A    between atoms: _337  and  _340
REMARK  140  A    between atoms: _343  and  _345
REMARK  141  A    between atoms: _345  and  _346
REMARK  142  A    between atoms: _345  and  _348
REMARK  143  A    between atoms: _348  and  _349
REMARK  144  A    between atoms: _352  and  _354
REMARK  145  A    between atoms: _354  and  _355
REMARK  146  A    between atoms: _358  and  _359
REMARK  147  A    between atoms: _364  and  _366
REMARK  148  A    between atoms: _366  and  _367
REMARK  149  A    between atoms: _370  and  _372
REMARK  150  A    between atoms: _372  and  _373
REMARK  151  A    between atoms: _372  and  _375
REMARK  152  A    between atoms: _375  and  _376
REMARK  153  A    between atoms: _376  and  _377
REMARK  154  A    between atoms: _377  and  _378
REMARK  155  A    between atoms: _387  and  _389
REMARK  156  A    between atoms: _389  and  _390
REMARK  157  A    between atoms: _389  and  _392
REMARK  158  A    between atoms: _392  and  _393
REMARK  159  A    between atoms: _396  and  _398
REMARK  160  A    between atoms: _398  and  _399
REMARK  161  A    between atoms: _402  and  _404
REMARK  162  A    between atoms: _404  and  _405
REMARK  163  A    between atoms: _404  and  _407
REMARK  164  A    between atoms: _407  and  _408
REMARK  165  A    between atoms: _408  and  _409
REMARK  166  A    between atoms: _412  and  _414
REMARK  167  A    between atoms: _414  and  _415
REMARK  168  A    between atoms: _414  and  _417
REMARK  169  A    between atoms: _417  and  _418
REMARK  170  A    between atoms: _428  and  _430
REMARK  171  A    between atoms: _430  and  _431
REMARK  172  A    between atoms: _434  and  _436
REMARK  173  A    between atoms: _436  and  _437
REMARK  174  A    between atoms: _436  and  _439
REMARK  175  A    between atoms: _439  and  _440
REMARK  176  A    between atoms: _442  and  _444
REMARK  177  A    between atoms: _444  and  _445
REMARK  178  A    between atoms: _447  and  _449
REMARK  179  A    between atoms: _449  and  _450
REMARK  180  A    between atoms: _449  and  _452
REMARK  181  A    between atoms: _452  and  _453
REMARK  182  A    between atoms: _458  and  _460
REMARK  183  A    between atoms: _460  and  _461
REMARK  184  A    between atoms: _463  and  _465
REMARK  185  A    between atoms: _465  and  _466
REMARK  186  A    between atoms: _465  and  _468
REMARK  187  A    between atoms: _468  and  _469
REMARK  188  A    between atoms: _469  and  _471
REMARK  189  A    between atoms: _471  and  CA_629
REMARK  190  A    between atoms: _472  and  _474
REMARK  191  A    between atoms: _474  and  _475
REMARK  192  A    between atoms: _474  and  _477
REMARK  193  A    between atoms: _477  and  _478
REMARK  194  A    between atoms: _480  and  _482
REMARK  195  A    between atoms: _482  and  _483
REMARK  196  A    between atoms: _482  and  _485
REMARK  197  A    between atoms: _487  and  _489
REMARK  198  A    between atoms: _489  and  _490
REMARK  199  A    between atoms: _489  and  _492
REMARK  200  A    between atoms: _494  and  _496
REMARK  201  A    between atoms: _496  and  _497
REMARK  202  A    between atoms: _496  and  _499
REMARK  203  A    between atoms: _499  and  _500
REMARK  204  A    between atoms: _503  and  _505
REMARK  205  A    between atoms: _505  and  _506
REMARK  206  A    between atoms: _508  and  _510
REMARK  207  A    between atoms: _510  and  _511
REMARK  208  A    between atoms: _510  and  _513
REMARK  209  A    between atoms: _513  and  _514
REMARK  210  A    between atoms: _519  and  _520
REMARK  211  A    between atoms: _522  and  _524
REMARK  212  A    between atoms: _524  and  _525
REMARK  213  A    between atoms: _524  and  _527
REMARK  214  A    between atoms: _527  and  _528
REMARK  215  A    between atoms: _531  and  _533
REMARK  216  A    between atoms: _533  and  _534
REMARK  217  A    between atoms: _533  and  _536
REMARK  218  A    between atoms: _536  and  _537
REMARK  219  A    between atoms: _542  and  _544
REMARK  220  A    between atoms: _544  and  _545
REMARK  221  A    between atoms: _544  and  _547
REMARK  222  A    between atoms: _547  and  _548
REMARK  223  A    between atoms: _551  and  _553
REMARK  224  A    between atoms: _553  and  _554
REMARK  225  A    between atoms: _553  and  _556
REMARK  226  A    between atoms: _556  and  _557
REMARK  227  A    between atoms: _559  and  _561
REMARK  228  A    between atoms: _561  and  _562
REMARK  229  A    between atoms: _561  and  _564
REMARK  230  A    between atoms: _564  and  _565
REMARK  231  A    between atoms: _568  and  _570
REMARK  232  A    between atoms: _570  and  _571
REMARK  233  A    between atoms: _570  and  _573
REMARK  234  A    between atoms: _573  and  _574
REMARK  235  A    between atoms: _574  and  _575
REMARK  236  A    between atoms: _578  and  _580
REMARK  237  A    between atoms: _580  and  _581
REMARK  238  A    between atoms: _580  and  _583
REMARK  239  A    between atoms: _583  and  _584
REMARK  240  A    between atoms: _587  and  _589
REMARK  241  A    between atoms: _589  and  _590
REMARK  242  A    between atoms: _592  and  _594
REMARK  243  A    between atoms: _594  and  _595
REMARK  244  A    between atoms: _594  and  _597
REMARK  245  A    between atoms: _597  and  _598
REMARK  246  A    between atoms: _601  and  _603
REMARK  247  A    between atoms: _603  and  _604
REMARK  248  A    between atoms: _603  and  _606
REMARK  249  A    between atoms: _606  and  _607
REMARK  250  A    between atoms: _609  and  _611
REMARK  251  A    between atoms: _611  and  _612
REMARK  252  A    between atoms: _615  and  _617
REMARK  253  A    between atoms: _617  and  _618
REMARK  254  A    between atoms: _617  and  _620
REMARK  255  A    between atoms: _620  and  _621
REMARK  256  A    between atoms: _623  and  _625
REMARK  257  A    between atoms: _625  and  _626
REMARK                            x       y       z     vdW  Elec       q    Type
REMARK                         _______ _______ _______ _____ _____    ______ ____
ROOT
ATOM      1  O   HOH     1      28.813  14.917  -4.128  0.00  0.00    +0.000 OA
ENDROOT
TORSDOF 0
REMARK  Name = ../refined-set-2016/4omc/4omc_pocket.pdb
REMARK  257 active torsions:
REMARK  status: ('A' for Active; 'I' for Inactive)
REMARK    1  A    between atoms: _1  and  _3
REMARK    2  A    between atoms: _3  and  _4
REMARK    3  A    between atoms: _3  and  _6
REMARK    4  A    between atoms: _6  and  _7
REMARK    5  A    between atoms: _10  and  _12
REMARK    6  A    between atoms: _12  and  _13
REMARK    7  A    between atoms: _12  and  _15
REMARK    8  A    between atoms: _15  and  _16
REMARK    9  A    between atoms: _19  and  _21
REMARK   10  A    between atoms: _21  and  _22
REMARK   11  A    between atoms: _24  and  _26
REMARK   12  A    between atoms: _26  and  _27
REMARK   13  A    between atoms: _26  and  _29
REMARK   14  A    between atoms: _29  and  _30
REMARK   15  A    between atoms: _35  and  _37
REMARK   16  A    between atoms: _37  and  _38
REMARK   17  A    between atoms: _37  and  _40
REMARK   18  A    between atoms: _40  and  _41
REMARK   19  A    between atoms: _41  and  _42
REMARK   20  A    between atoms: _42  and  _43
REMARK   21  A    between atoms: _52  and  _54
REMARK   22  A    between atoms: _54  and  _55
REMARK   23  A    between atoms: _54  and  _57
REMARK   24  A    between atoms: _57  and  _58
REMARK   25  A    between atoms: _61  and  _63
REMARK   26  A    between atoms: _63  and  _64
REMARK   27  A    between atoms: _63  and  _66
REMARK   28  A    between atoms: _66  and  _67
REMARK   29  A    between atoms: _72  and  _74
REMARK   30  A    between atoms: _74  and  _75
REMARK   31  A    between atoms: _74  and  _77
REMARK   32  A    between atoms: _77  and  _78
REMARK   33  A    between atoms: _81  and  _83
REMARK   34  A    between atoms: _83  and  _84
REMARK   35  A    between atoms: _83  and  _86
REMARK   36  A    between atoms: _86  and  _87
REMARK   37  A    between atoms: _92  and  _94
REMARK   38  A    between atoms: _94  and  _95
REMARK   39  A    between atoms: _94  and  _97
REMARK   40  A    between atoms: _97  and  _98
REMARK   41  A    between atoms: _98  and  _99
REMARK   42  A    between atoms: _99  and  _100
REMARK   43  A    between atoms: _109  and  _111
REMARK   44  A    between atoms: _111  and  _112
REMARK   45  A    between atoms: _111  and  _114
REMARK   46  A    between atoms: _114  and  _115
REMARK   47  A    between atoms: _120  and  _122
REMARK   48  A    between atoms: _122  and  _123
REMARK   49  A    between atoms: _125  and  _127
REMARK   50  A    between atoms: _127  and  _128
REMARK   51  A    between atoms: _127  and  _130
REMARK   52  A    between atoms: _130  and  _131
REMARK   53  A    between atoms: _134  and  _136
REMARK   54  A    between atoms: _136  and  _137
REMARK   55  A    between atoms: _136  and  _139
REMARK   56  A    between atoms: _141  and  _143
REMARK   57  A    between atoms: _143  and  _144
REMARK   58  A    between atoms: _143  and  _146
REMARK   59  A    between atoms: _146  and  _147
REMARK   60  A    between atoms: _147  and  _148
REMARK   61  A    between atoms: _148  and  _149
REMARK   62  A    between atoms: _158  and  _160
REMARK   63  A    between atoms: _160  and  _161
REMARK   64  A    between atoms: _160  and  _163
REMARK   65  A    between atoms: _163  and  _164
REMARK   66  A    between atoms: _164  and  _165
REMARK   67  A    between atoms: _167  and  _169
REMARK   68  A    between atoms: _169  and  _170
REMARK   69  A    between atoms: _169  and  _172
REMARK   70  A    between atoms: _172  and  _173
REMARK   71  A    between atoms: _176  and  _178
REMARK   72  A    between atoms: _178  and  _179
REMARK   73  A    between atoms: _178  and  _181
REMARK   74  A    between atoms: _181  and  _182
REMARK   75  A    between atoms: _185  and  _187
REMARK   76  A    between atoms: _187  and  _188
REMARK   77  A    between atoms: _190  and  _192
REMARK   78  A    between atoms: _192  and  _193
REMARK   79  A    between atoms: _192  and  _195
REMARK   80  A    between atoms: _195  and  _196
REMARK   81  A    between atoms: _196  and  _197
REMARK   82  A    between atoms: _200  and  _202
REMARK   83  A    between atoms: _202  and  _203
REMARK   84  A    between atoms: _202  and  _205
REMARK   85  A    between atoms: _208  and  _210
REMARK   86  A    between atoms: _210  and  _211
REMARK   87  A    between atoms: _210  and  _213
REMARK   88  A    between atoms: _213  and  _214
REMARK   89  A    between atoms: _217  and  _219
REMARK   90  A    between atoms: _219  and  _220
REMARK   91  A    between atoms: _219  and  _222
REMARK   92  A    between atoms: _222  and  _223
REMARK   93  A    between atoms: _226  and  _228
REMARK   94  A    between atoms: _228  and  _229
REMARK   95  A    between atoms: _232  and  _234
REMARK   96  A    between atoms: _234  and  _235
REMARK   97  A    between atoms: _234  and  _237
REMARK   98  A    between atoms: _240  and  _242
REMARK   99  A    between atoms: _242  and  _243
REMARK  100  A    between atoms: _242  and  _245
REMARK  101  A    between atoms: _245  and  _246
REMARK  102  A    between atoms: _246  and  _247
REMARK  103  A    between atoms: _250  and  _252
REMARK  104  A    between atoms: _252  and  _253
REMARK  105  A    between atoms: _256  and  _258
REMARK  106  A    between atoms: _258  and  _259
REMARK  107  A    between atoms: _262  and  _264
REMARK  108  A    between atoms: _264  and  _265
REMARK  109  A    between atoms: _264  and  _267
REMARK  110  A    between atoms: _267  and  _268
REMARK  111  A    between atoms: _270  and  _272
REMARK  112  A    between atoms: _272  and  _273
REMARK  113  A    between atoms: _272  and  _275
REMARK  114  A    between atoms: _275  and  _276
REMARK  115  A    between atoms: _286  and  _288
REMARK  116  A    between atoms: _288  and  _289
REMARK  117  A    between atoms: _292  and  _293
REMARK  118  A    between atoms: _298  and  _300
REMARK  119  A    between atoms: _300  and  _301
REMARK  120  A    between atoms: _300  and  _303
REMARK  121  A    between atoms: _303  and  _304
REMARK  122  A    between atoms: _304  and  _305
REMARK  123  A    between atoms: _308  and  _310
REMARK  124  A    between atoms: _310  and  _311
REMARK  125  A    between atoms: _310  and  _313
REMARK  126  A    between atoms: _313  and  _314
REMARK  127  A    between atoms: _314  and  _315
REMARK  128  A    between atoms: _315  and  CA_629
REMARK  129  A    between atoms: _317  and  _319
REMARK  130  A    between atoms: _319  and  _320
REMARK  131  A    between atoms: _319  and  _322
REMARK  132  A    between atoms: _322  and  _323
REMARK  133  A    between atoms: _326  and  _328
REMARK  134  A    between atoms: _328  and  _329
REMARK  135  A    between atoms: _328  and  _331
REMARK  136  A    between atoms: _331  and  _332
REMARK  137  A    between atoms: _335  and  _337
REMARK  138  A    between atoms: _337  and  _338
REMARK  139  A    between atoms: _337  and  _340
REMARK  140  A    between atoms: _343  and  _345
REMARK  141  A    between atoms: _345  and  _346
REMARK  142  A    between atoms: _345  and  _348
REMARK  143  A    between atoms: _348  and  _349
REMARK  144  A    between atoms: _352  and  _354
REMARK  145  A    between atoms: _354  and  _355
REMARK  146  A    between atoms: _358  and  _359
REMARK  147  A    between atoms: _364  and  _366
REMARK  148  A    between atoms: _366  and  _367
REMARK  149  A    between atoms: _370  and  _372
REMARK  150  A    between atoms: _372  and  _373
REMARK  151  A    between atoms: _372  and  _375
REMARK  152  A    between atoms: _375  and  _376
REMARK  153  A    between atoms: _376  and  _377
REMARK  154  A    between atoms: _377  and  _378
REMARK  155  A    between atoms: _387  and  _389
REMARK  156  A    between atoms: _389  and  _390
REMARK  157  A    between atoms: _389  and  _392
REMARK  158  A    between atoms: _392  and  _393
REMARK  159  A    between atoms: _396  and  _398
REMARK  160  A    between atoms: _398  and  _399
REMARK  161  A    between atoms: _402  and  _404
REMARK  162  A    between atoms: _404  and  _405
REMARK  163  A    between atoms: _404  and  _407
REMARK  164  A    between atoms: _407  and  _408
REMARK  165  A    between atoms: _408  and  _409
REMARK  166  A    between atoms: _412  and  _414
REMARK  167  A    between atoms: _414  and  _415
REMARK  168  A    between atoms: _414  and  _417
REMARK  169  A    between atoms: _417  and  _418
REMARK  170  A    between atoms: _428  and  _430
REMARK  171  A    between atoms: _430  and  _431
REMARK  172  A    between atoms: _434  and  _436
REMARK  173  A    between atoms: _436  and  _437
REMARK  174  A    between atoms: _436  and  _439
REMARK  175  A    between atoms: _439  and  _440
REMARK  176  A    between atoms: _442  and  _444
REMARK  177  A    between atoms: _444  and  _445
REMARK  178  A    between atoms: _447  and  _449
REMARK  179  A    between atoms: _449  and  _450
REMARK  180  A    between atoms: _449  and  _452
REMARK  181  A    between atoms: _452  and  _453
REMARK  182  A    between atoms: _458  and  _460
REMARK  183  A    between atoms: _460  and  _461
REMARK  184  A    between atoms: _463  and  _465
REMARK  185  A    between atoms: _465  and  _466
REMARK  186  A    between atoms: _465  and  _468
REMARK  187  A    between atoms: _468  and  _469
REMARK  188  A    between atoms: _469  and  _471
REMARK  189  A    between atoms: _471  and  CA_629
REMARK  190  A    between atoms: _472  and  _474
REMARK  191  A    between atoms: _474  and  _475
REMARK  192  A    between atoms: _474  and  _477
REMARK  193  A    between atoms: _477  and  _478
REMARK  194  A    between atoms: _480  and  _482
REMARK  195  A    between atoms: _482  and  _483
REMARK  196  A    between atoms: _482  and  _485
REMARK  197  A    between atoms: _487  and  _489
REMARK  198  A    between atoms: _489  and  _490
REMARK  199  A    between atoms: _489  and  _492
REMARK  200  A    between atoms: _494  and  _496
REMARK  201  A    between atoms: _496  and  _497
REMARK  202  A    between atoms: _496  and  _499
REMARK  203  A    between atoms: _499  and  _500
REMARK  204  A    between atoms: _503  and  _505
REMARK  205  A    between atoms: _505  and  _506
REMARK  206  A    between atoms: _508  and  _510
REMARK  207  A    between atoms: _510  and  _511
REMARK  208  A    between atoms: _510  and  _513
REMARK  209  A    between atoms: _513  and  _514
REMARK  210  A    between atoms: _519  and  _520
REMARK  211  A    between atoms: _522  and  _524
REMARK  212  A    between atoms: _524  and  _525
REMARK  213  A    between atoms: _524  and  _527
REMARK  214  A    between atoms: _527  and  _528
REMARK  215  A    between atoms: _531  and  _533
REMARK  216  A    between atoms: _533  and  _534
REMARK  217  A    between atoms: _533  and  _536
REMARK  218  A    between atoms: _536  and  _537
REMARK  219  A    between atoms: _542  and  _544
REMARK  220  A    between atoms: _544  and  _545
REMARK  221  A    between atoms: _544  and  _547
REMARK  222  A    between atoms: _547  and  _548
REMARK  223  A    between atoms: _551  and  _553
REMARK  224  A    between atoms: _553  and  _554
REMARK  225  A    between atoms: _553  and  _556
REMARK  226  A    between atoms: _556  and  _557
REMARK  227  A    between atoms: _559  and  _561
REMARK  228  A    between atoms: _561  and  _562
REMARK  229  A    between atoms: _561  and  _564
REMARK  230  A    between atoms: _564  and  _565
REMARK  231  A    between atoms: _568  and  _570
REMARK  232  A    between atoms: _570  and  _571
REMARK  233  A    between atoms: _570  and  _573
REMARK  234  A    between atoms: _573  and  _574
REMARK  235  A    between atoms: _574  and  _575
REMARK  236  A    between atoms: _578  and  _580
REMARK  237  A    between atoms: _580  and  _581
REMARK  238  A    between atoms: _580  and  _583
REMARK  239  A    between atoms: _583  and  _584
REMARK  240  A    between atoms: _587  and  _589
REMARK  241  A    between atoms: _589  and  _590
REMARK  242  A    between atoms: _592  and  _594
REMARK  243  A    between atoms: _594  and  _595
REMARK  244  A    between atoms: _594  and  _597
REMARK  245  A    between atoms: _597  and  _598
REMARK  246  A    between atoms: _601  and  _603
REMARK  247  A    between atoms: _603  and  _604
REMARK  248  A    between atoms: _603  and  _606
REMARK  249  A    between atoms: _606  and  _607
REMARK  250  A    between atoms: _609  and  _611
REMARK  251  A    between atoms: _611  and  _612
REMARK  252  A    between atoms: _615  and  _617
REMARK  253  A    between atoms: _617  and  _618
REMARK  254  A    between atoms: _617  and  _620
REMARK  255  A    between atoms: _620  and  _621
REMARK  256  A    between atoms: _623  and  _625
REMARK  257  A    between atoms: _625  and  _626
REMARK                            x       y       z     vdW  Elec       q    Type
REMARK                         _______ _______ _______ _____ _____    ______ ____
ROOT
ATOM      1  O   HOH     1      22.662  23.599  -8.897  0.00  0.00    +0.000 OA
ENDROOT
TORSDOF 0
REMARK  Name = ../refined-set-2016/4omc/4omc_pocket.pdb
REMARK  257 active torsions:
REMARK  status: ('A' for Active; 'I' for Inactive)
REMARK    1  A    between atoms: _1  and  _3
REMARK    2  A    between atoms: _3  and  _4
REMARK    3  A    between atoms: _3  and  _6
REMARK    4  A    between atoms: _6  and  _7
REMARK    5  A    between atoms: _10  and  _12
REMARK    6  A    between atoms: _12  and  _13
REMARK    7  A    between atoms: _12  and  _15
REMARK    8  A    between atoms: _15  and  _16
REMARK    9  A    between atoms: _19  and  _21
REMARK   10  A    between atoms: _21  and  _22
REMARK   11  A    between atoms: _24  and  _26
REMARK   12  A    between atoms: _26  and  _27
REMARK   13  A    between atoms: _26  and  _29
REMARK   14  A    between atoms: _29  and  _30
REMARK   15  A    between atoms: _35  and  _37
REMARK   16  A    between atoms: _37  and  _38
REMARK   17  A    between atoms: _37  and  _40
REMARK   18  A    between atoms: _40  and  _41
REMARK   19  A    between atoms: _41  and  _42
REMARK   20  A    between atoms: _42  and  _43
REMARK   21  A    between atoms: _52  and  _54
REMARK   22  A    between atoms: _54  and  _55
REMARK   23  A    between atoms: _54  and  _57
REMARK   24  A    between atoms: _57  and  _58
REMARK   25  A    between atoms: _61  and  _63
REMARK   26  A    between atoms: _63  and  _64
REMARK   27  A    between atoms: _63  and  _66
REMARK   28  A    between atoms: _66  and  _67
REMARK   29  A    between atoms: _72  and  _74
REMARK   30  A    between atoms: _74  and  _75
REMARK   31  A    between atoms: _74  and  _77
REMARK   32  A    between atoms: _77  and  _78
REMARK   33  A    between atoms: _81  and  _83
REMARK   34  A    between atoms: _83  and  _84
REMARK   35  A    between atoms: _83  and  _86
REMARK   36  A    between atoms: _86  and  _87
REMARK   37  A    between atoms: _92  and  _94
REMARK   38  A    between atoms: _94  and  _95
REMARK   39  A    between atoms: _94  and  _97
REMARK   40  A    between atoms: _97  and  _98
REMARK   41  A    between atoms: _98  and  _99
REMARK   42  A    between atoms: _99  and  _100
REMARK   43  A    between atoms: _109  and  _111
REMARK   44  A    between atoms: _111  and  _112
REMARK   45  A    between atoms: _111  and  _114
REMARK   46  A    between atoms: _114  and  _115
REMARK   47  A    between atoms: _120  and  _122
REMARK   48  A    between atoms: _122  and  _123
REMARK   49  A    between atoms: _125  and  _127
REMARK   50  A    between atoms: _127  and  _128
REMARK   51  A    between atoms: _127  and  _130
REMARK   52  A    between atoms: _130  and  _131
REMARK   53  A    between atoms: _134  and  _136
REMARK   54  A    between atoms: _136  and  _137
REMARK   55  A    between atoms: _136  and  _139
REMARK   56  A    between atoms: _141  and  _143
REMARK   57  A    between atoms: _143  and  _144
REMARK   58  A    between atoms: _143  and  _146
REMARK   59  A    between atoms: _146  and  _147
REMARK   60  A    between atoms: _147  and  _148
REMARK   61  A    between atoms: _148  and  _149
REMARK   62  A    between atoms: _158  and  _160
REMARK   63  A    between atoms: _160  and  _161
REMARK   64  A    between atoms: _160  and  _163
REMARK   65  A    between atoms: _163  and  _164
REMARK   66  A    between atoms: _164  and  _165
REMARK   67  A    between atoms: _167  and  _169
REMARK   68  A    between atoms: _169  and  _170
REMARK   69  A    between atoms: _169  and  _172
REMARK   70  A    between atoms: _172  and  _173
REMARK   71  A    between atoms: _176  and  _178
REMARK   72  A    between atoms: _178  and  _179
REMARK   73  A    between atoms: _178  and  _181
REMARK   74  A    between atoms: _181  and  _182
REMARK   75  A    between atoms: _185  and  _187
REMARK   76  A    between atoms: _187  and  _188
REMARK   77  A    between atoms: _190  and  _192
REMARK   78  A    between atoms: _192  and  _193
REMARK   79  A    between atoms: _192  and  _195
REMARK   80  A    between atoms: _195  and  _196
REMARK   81  A    between atoms: _196  and  _197
REMARK   82  A    between atoms: _200  and  _202
REMARK   83  A    between atoms: _202  and  _203
REMARK   84  A    between atoms: _202  and  _205
REMARK   85  A    between atoms: _208  and  _210
REMARK   86  A    between atoms: _210  and  _211
REMARK   87  A    between atoms: _210  and  _213
REMARK   88  A    between atoms: _213  and  _214
REMARK   89  A    between atoms: _217  and  _219
REMARK   90  A    between atoms: _219  and  _220
REMARK   91  A    between atoms: _219  and  _222
REMARK   92  A    between atoms: _222  and  _223
REMARK   93  A    between atoms: _226  and  _228
REMARK   94  A    between atoms: _228  and  _229
REMARK   95  A    between atoms: _232  and  _234
REMARK   96  A    between atoms: _234  and  _235
REMARK   97  A    between atoms: _234  and  _237
REMARK   98  A    between atoms: _240  and  _242
REMARK   99  A    between atoms: _242  and  _243
REMARK  100  A    between atoms: _242  and  _245
REMARK  101  A    between atoms: _245  and  _246
REMARK  102  A    between atoms: _246  and  _247
REMARK  103  A    between atoms: _250  and  _252
REMARK  104  A    between atoms: _252  and  _253
REMARK  105  A    between atoms: _256  and  _258
REMARK  106  A    between atoms: _258  and  _259
REMARK  107  A    between atoms: _262  and  _264
REMARK  108  A    between atoms: _264  and  _265
REMARK  109  A    between atoms: _264  and  _267
REMARK  110  A    between atoms: _267  and  _268
REMARK  111  A    between atoms: _270  and  _272
REMARK  112  A    between atoms: _272  and  _273
REMARK  113  A    between atoms: _272  and  _275
REMARK  114  A    between atoms: _275  and  _276
REMARK  115  A    between atoms: _286  and  _288
REMARK  116  A    between atoms: _288  and  _289
REMARK  117  A    between atoms: _292  and  _293
REMARK  118  A    between atoms: _298  and  _300
REMARK  119  A    between atoms: _300  and  _301
REMARK  120  A    between atoms: _300  and  _303
REMARK  121  A    between atoms: _303  and  _304
REMARK  122  A    between atoms: _304  and  _305
REMARK  123  A    between atoms: _308  and  _310
REMARK  124  A    between atoms: _310  and  _311
REMARK  125  A    between atoms: _310  and  _313
REMARK  126  A    between atoms: _313  and  _314
REMARK  127  A    between atoms: _314  and  _315
REMARK  128  A    between atoms: _315  and  CA_629
REMARK  129  A    between atoms: _317  and  _319
REMARK  130  A    between atoms: _319  and  _320
REMARK  131  A    between atoms: _319  and  _322
REMARK  132  A    between atoms: _322  and  _323
REMARK  133  A    between atoms: _326  and  _328
REMARK  134  A    between atoms: _328  and  _329
REMARK  135  A    between atoms: _328  and  _331
REMARK  136  A    between atoms: _331  and  _332
REMARK  137  A    between atoms: _335  and  _337
REMARK  138  A    between atoms: _337  and  _338
REMARK  139  A    between atoms: _337  and  _340
REMARK  140  A    between atoms: _343  and  _345
REMARK  141  A    between atoms: _345  and  _346
REMARK  142  A    between atoms: _345  and  _348
REMARK  143  A    between atoms: _348  and  _349
REMARK  144  A    between atoms: _352  and  _354
REMARK  145  A    between atoms: _354  and  _355
REMARK  146  A    between atoms: _358  and  _359
REMARK  147  A    between atoms: _364  and  _366
REMARK  148  A    between atoms: _366  and  _367
REMARK  149  A    between atoms: _370  and  _372
REMARK  150  A    between atoms: _372  and  _373
REMARK  151  A    between atoms: _372  and  _375
REMARK  152  A    between atoms: _375  and  _376
REMARK  153  A    between atoms: _376  and  _377
REMARK  154  A    between atoms: _377  and  _378
REMARK  155  A    between atoms: _387  and  _389
REMARK  156  A    between atoms: _389  and  _390
REMARK  157  A    between atoms: _389  and  _392
REMARK  158  A    between atoms: _392  and  _393
REMARK  159  A    between atoms: _396  and  _398
REMARK  160  A    between atoms: _398  and  _399
REMARK  161  A    between atoms: _402  and  _404
REMARK  162  A    between atoms: _404  and  _405
REMARK  163  A    between atoms: _404  and  _407
REMARK  164  A    between atoms: _407  and  _408
REMARK  165  A    between atoms: _408  and  _409
REMARK  166  A    between atoms: _412  and  _414
REMARK  167  A    between atoms: _414  and  _415
REMARK  168  A    between atoms: _414  and  _417
REMARK  169  A    between atoms: _417  and  _418
REMARK  170  A    between atoms: _428  and  _430
REMARK  171  A    between atoms: _430  and  _431
REMARK  172  A    between atoms: _434  and  _436
REMARK  173  A    between atoms: _436  and  _437
REMARK  174  A    between atoms: _436  and  _439
REMARK  175  A    between atoms: _439  and  _440
REMARK  176  A    between atoms: _442  and  _444
REMARK  177  A    between atoms: _444  and  _445
REMARK  178  A    between atoms: _447  and  _449
REMARK  179  A    between atoms: _449  and  _450
REMARK  180  A    between atoms: _449  and  _452
REMARK  181  A    between atoms: _452  and  _453
REMARK  182  A    between atoms: _458  and  _460
REMARK  183  A    between atoms: _460  and  _461
REMARK  184  A    between atoms: _463  and  _465
REMARK  185  A    between atoms: _465  and  _466
REMARK  186  A    between atoms: _465  and  _468
REMARK  187  A    between atoms: _468  and  _469
REMARK  188  A    between atoms: _469  and  _471
REMARK  189  A    between atoms: _471  and  CA_629
REMARK  190  A    between atoms: _472  and  _474
REMARK  191  A    between atoms: _474  and  _475
REMARK  192  A    between atoms: _474  and  _477
REMARK  193  A    between atoms: _477  and  _478
REMARK  194  A    between atoms: _480  and  _482
REMARK  195  A    between atoms: _482  and  _483
REMARK  196  A    between atoms: _482  and  _485
REMARK  197  A    between atoms: _487  and  _489
REMARK  198  A    between atoms: _489  and  _490
REMARK  199  A    between atoms: _489  and  _492
REMARK  200  A    between atoms: _494  and  _496
REMARK  201  A    between atoms: _496  and  _497
REMARK  202  A    between atoms: _496  and  _499
REMARK  203  A    between atoms: _499  and  _500
REMARK  204  A    between atoms: _503  and  _505
REMARK  205  A    between atoms: _505  and  _506
REMARK  206  A    between atoms: _508  and  _510
REMARK  207  A    between atoms: _510  and  _511
REMARK  208  A    between atoms: _510  and  _513
REMARK  209  A    between atoms: _513  and  _514
REMARK  210  A    between atoms: _519  and  _520
REMARK  211  A    between atoms: _522  and  _524
REMARK  212  A    between atoms: _524  and  _525
REMARK  213  A    between atoms: _524  and  _527
REMARK  214  A    between atoms: _527  and  _528
REMARK  215  A    between atoms: _531  and  _533
REMARK  216  A    between atoms: _533  and  _534
REMARK  217  A    between atoms: _533  and  _536
REMARK  218  A    between atoms: _536  and  _537
REMARK  219  A    between atoms: _542  and  _544
REMARK  220  A    between atoms: _544  and  _545
REMARK  221  A    between atoms: _544  and  _547
REMARK  222  A    between atoms: _547  and  _548
REMARK  223  A    between atoms: _551  and  _553
REMARK  224  A    between atoms: _553  and  _554
REMARK  225  A    between atoms: _553  and  _556
REMARK  226  A    between atoms: _556  and  _557
REMARK  227  A    between atoms: _559  and  _561
REMARK  228  A    between atoms: _561  and  _562
REMARK  229  A    between atoms: _561  and  _564
REMARK  230  A    between atoms: _564  and  _565
REMARK  231  A    between atoms: _568  and  _570
REMARK  232  A    between atoms: _570  and  _571
REMARK  233  A    between atoms: _570  and  _573
REMARK  234  A    between atoms: _573  and  _574
REMARK  235  A    between atoms: _574  and  _575
REMARK  236  A    between atoms: _578  and  _580
REMARK  237  A    between atoms: _580  and  _581
REMARK  238  A    between atoms: _580  and  _583
REMARK  239  A    between atoms: _583  and  _584
REMARK  240  A    between atoms: _587  and  _589
REMARK  241  A    between atoms: _589  and  _590
REMARK  242  A    between atoms: _592  and  _594
REMARK  243  A    between atoms: _594  and  _595
REMARK  244  A    between atoms: _594  and  _597
REMARK  245  A    between atoms: _597  and  _598
REMARK  246  A    between atoms: _601  and  _603
REMARK  247  A    between atoms: _603  and  _604
REMARK  248  A    between atoms: _603  and  _606
REMARK  249  A    between atoms: _606  and  _607
REMARK  250  A    between atoms: _609  and  _611
REMARK  251  A    between atoms: _611  and  _612
REMARK  252  A    between atoms: _615  and  _617
REMARK  253  A    between atoms: _617  and  _618
REMARK  254  A    between atoms: _617  and  _620
REMARK  255  A    between atoms: _620  and  _621
REMARK  256  A    between atoms: _623  and  _625
REMARK  257  A    between atoms: _625  and  _626
REMARK                            x       y       z     vdW  Elec       q    Type
REMARK                         _______ _______ _______ _____ _____    ______ ____
ROOT
ATOM      1  O   HOH     1      40.067  22.021  -1.331  0.00  0.00    +0.000 OA
ENDROOT
TORSDOF 0
REMARK  Name = ../refined-set-2016/4omc/4omc_pocket.pdb
REMARK  257 active torsions:
REMARK  status: ('A' for Active; 'I' for Inactive)
REMARK    1  A    between atoms: _1  and  _3
REMARK    2  A    between atoms: _3  and  _4
REMARK    3  A    between atoms: _3  and  _6
REMARK    4  A    between atoms: _6  and  _7
REMARK    5  A    between atoms: _10  and  _12
REMARK    6  A    between atoms: _12  and  _13
REMARK    7  A    between atoms: _12  and  _15
REMARK    8  A    between atoms: _15  and  _16
REMARK    9  A    between atoms: _19  and  _21
REMARK   10  A    between atoms: _21  and  _22
REMARK   11  A    between atoms: _24  and  _26
REMARK   12  A    between atoms: _26  and  _27
REMARK   13  A    between atoms: _26  and  _29
REMARK   14  A    between atoms: _29  and  _30
REMARK   15  A    between atoms: _35  and  _37
REMARK   16  A    between atoms: _37  and  _38
REMARK   17  A    between atoms: _37  and  _40
REMARK   18  A    between atoms: _40  and  _41
REMARK   19  A    between atoms: _41  and  _42
REMARK   20  A    between atoms: _42  and  _43
REMARK   21  A    between atoms: _52  and  _54
REMARK   22  A    between atoms: _54  and  _55
REMARK   23  A    between atoms: _54  and  _57
REMARK   24  A    between atoms: _57  and  _58
REMARK   25  A    between atoms: _61  and  _63
REMARK   26  A    between atoms: _63  and  _64
REMARK   27  A    between atoms: _63  and  _66
REMARK   28  A    between atoms: _66  and  _67
REMARK   29  A    between atoms: _72  and  _74
REMARK   30  A    between atoms: _74  and  _75
REMARK   31  A    between atoms: _74  and  _77
REMARK   32  A    between atoms: _77  and  _78
REMARK   33  A    between atoms: _81  and  _83
REMARK   34  A    between atoms: _83  and  _84
REMARK   35  A    between atoms: _83  and  _86
REMARK   36  A    between atoms: _86  and  _87
REMARK   37  A    between atoms: _92  and  _94
REMARK   38  A    between atoms: _94  and  _95
REMARK   39  A    between atoms: _94  and  _97
REMARK   40  A    between atoms: _97  and  _98
REMARK   41  A    between atoms: _98  and  _99
REMARK   42  A    between atoms: _99  and  _100
REMARK   43  A    between atoms: _109  and  _111
REMARK   44  A    between atoms: _111  and  _112
REMARK   45  A    between atoms: _111  and  _114
REMARK   46  A    between atoms: _114  and  _115
REMARK   47  A    between atoms: _120  and  _122
REMARK   48  A    between atoms: _122  and  _123
REMARK   49  A    between atoms: _125  and  _127
REMARK   50  A    between atoms: _127  and  _128
REMARK   51  A    between atoms: _127  and  _130
REMARK   52  A    between atoms: _130  and  _131
REMARK   53  A    between atoms: _134  and  _136
REMARK   54  A    between atoms: _136  and  _137
REMARK   55  A    between atoms: _136  and  _139
REMARK   56  A    between atoms: _141  and  _143
REMARK   57  A    between atoms: _143  and  _144
REMARK   58  A    between atoms: _143  and  _146
REMARK   59  A    between atoms: _146  and  _147
REMARK   60  A    between atoms: _147  and  _148
REMARK   61  A    between atoms: _148  and  _149
REMARK   62  A    between atoms: _158  and  _160
REMARK   63  A    between atoms: _160  and  _161
REMARK   64  A    between atoms: _160  and  _163
REMARK   65  A    between atoms: _163  and  _164
REMARK   66  A    between atoms: _164  and  _165
REMARK   67  A    between atoms: _167  and  _169
REMARK   68  A    between atoms: _169  and  _170
REMARK   69  A    between atoms: _169  and  _172
REMARK   70  A    between atoms: _172  and  _173
REMARK   71  A    between atoms: _176  and  _178
REMARK   72  A    between atoms: _178  and  _179
REMARK   73  A    between atoms: _178  and  _181
REMARK   74  A    between atoms: _181  and  _182
REMARK   75  A    between atoms: _185  and  _187
REMARK   76  A    between atoms: _187  and  _188
REMARK   77  A    between atoms: _190  and  _192
REMARK   78  A    between atoms: _192  and  _193
REMARK   79  A    between atoms: _192  and  _195
REMARK   80  A    between atoms: _195  and  _196
REMARK   81  A    between atoms: _196  and  _197
REMARK   82  A    between atoms: _200  and  _202
REMARK   83  A    between atoms: _202  and  _203
REMARK   84  A    between atoms: _202  and  _205
REMARK   85  A    between atoms: _208  and  _210
REMARK   86  A    between atoms: _210  and  _211
REMARK   87  A    between atoms: _210  and  _213
REMARK   88  A    between atoms: _213  and  _214
REMARK   89  A    between atoms: _217  and  _219
REMARK   90  A    between atoms: _219  and  _220
REMARK   91  A    between atoms: _219  and  _222
REMARK   92  A    between atoms: _222  and  _223
REMARK   93  A    between atoms: _226  and  _228
REMARK   94  A    between atoms: _228  and  _229
REMARK   95  A    between atoms: _232  and  _234
REMARK   96  A    between atoms: _234  and  _235
REMARK   97  A    between atoms: _234  and  _237
REMARK   98  A    between atoms: _240  and  _242
REMARK   99  A    between atoms: _242  and  _243
REMARK  100  A    between atoms: _242  and  _245
REMARK  101  A    between atoms: _245  and  _246
REMARK  102  A    between atoms: _246  and  _247
REMARK  103  A    between atoms: _250  and  _252
REMARK  104  A    between atoms: _252  and  _253
REMARK  105  A    between atoms: _256  and  _258
REMARK  106  A    between atoms: _258  and  _259
REMARK  107  A    between atoms: _262  and  _264
REMARK  108  A    between atoms: _264  and  _265
REMARK  109  A    between atoms: _264  and  _267
REMARK  110  A    between atoms: _267  and  _268
REMARK  111  A    between atoms: _270  and  _272
REMARK  112  A    between atoms: _272  and  _273
REMARK  113  A    between atoms: _272  and  _275
REMARK  114  A    between atoms: _275  and  _276
REMARK  115  A    between atoms: _286  and  _288
REMARK  116  A    between atoms: _288  and  _289
REMARK  117  A    between atoms: _292  and  _293
REMARK  118  A    between atoms: _298  and  _300
REMARK  119  A    between atoms: _300  and  _301
REMARK  120  A    between atoms: _300  and  _303
REMARK  121  A    between atoms: _303  and  _304
REMARK  122  A    between atoms: _304  and  _305
REMARK  123  A    between atoms: _308  and  _310
REMARK  124  A    between atoms: _310  and  _311
REMARK  125  A    between atoms: _310  and  _313
REMARK  126  A    between atoms: _313  and  _314
REMARK  127  A    between atoms: _314  and  _315
REMARK  128  A    between atoms: _315  and  CA_629
REMARK  129  A    between atoms: _317  and  _319
REMARK  130  A    between atoms: _319  and  _320
REMARK  131  A    between atoms: _319  and  _322
REMARK  132  A    between atoms: _322  and  _323
REMARK  133  A    between atoms: _326  and  _328
REMARK  134  A    between atoms: _328  and  _329
REMARK  135  A    between atoms: _328  and  _331
REMARK  136  A    between atoms: _331  and  _332
REMARK  137  A    between atoms: _335  and  _337
REMARK  138  A    between atoms: _337  and  _338
REMARK  139  A    between atoms: _337  and  _340
REMARK  140  A    between atoms: _343  and  _345
REMARK  141  A    between atoms: _345  and  _346
REMARK  142  A    between atoms: _345  and  _348
REMARK  143  A    between atoms: _348  and  _349
REMARK  144  A    between atoms: _352  and  _354
REMARK  145  A    between atoms: _354  and  _355
REMARK  146  A    between atoms: _358  and  _359
REMARK  147  A    between atoms: _364  and  _366
REMARK  148  A    between atoms: _366  and  _367
REMARK  149  A    between atoms: _370  and  _372
REMARK  150  A    between atoms: _372  and  _373
REMARK  151  A    between atoms: _372  and  _375
REMARK  152  A    between atoms: _375  and  _376
REMARK  153  A    between atoms: _376  and  _377
REMARK  154  A    between atoms: _377  and  _378
REMARK  155  A    between atoms: _387  and  _389
REMARK  156  A    between atoms: _389  and  _390
REMARK  157  A    between atoms: _389  and  _392
REMARK  158  A    between atoms: _392  and  _393
REMARK  159  A    between atoms: _396  and  _398
REMARK  160  A    between atoms: _398  and  _399
REMARK  161  A    between atoms: _402  and  _404
REMARK  162  A    between atoms: _404  and  _405
REMARK  163  A    between atoms: _404  and  _407
REMARK  164  A    between atoms: _407  and  _408
REMARK  165  A    between atoms: _408  and  _409
REMARK  166  A    between atoms: _412  and  _414
REMARK  167  A    between atoms: _414  and  _415
REMARK  168  A    between atoms: _414  and  _417
REMARK  169  A    between atoms: _417  and  _418
REMARK  170  A    between atoms: _428  and  _430
REMARK  171  A    between atoms: _430  and  _431
REMARK  172  A    between atoms: _434  and  _436
REMARK  173  A    between atoms: _436  and  _437
REMARK  174  A    between atoms: _436  and  _439
REMARK  175  A    between atoms: _439  and  _440
REMARK  176  A    between atoms: _442  and  _444
REMARK  177  A    between atoms: _444  and  _445
REMARK  178  A    between atoms: _447  and  _449
REMARK  179  A    between atoms: _449  and  _450
REMARK  180  A    between atoms: _449  and  _452
REMARK  181  A    between atoms: _452  and  _453
REMARK  182  A    between atoms: _458  and  _460
REMARK  183  A    between atoms: _460  and  _461
REMARK  184  A    between atoms: _463  and  _465
REMARK  185  A    between atoms: _465  and  _466
REMARK  186  A    between atoms: _465  and  _468
REMARK  187  A    between atoms: _468  and  _469
REMARK  188  A    between atoms: _469  and  _471
REMARK  189  A    between atoms: _471  and  CA_629
REMARK  190  A    between atoms: _472  and  _474
REMARK  191  A    between atoms: _474  and  _475
REMARK  192  A    between atoms: _474  and  _477
REMARK  193  A    between atoms: _477  and  _478
REMARK  194  A    between atoms: _480  and  _482
REMARK  195  A    between atoms: _482  and  _483
REMARK  196  A    between atoms: _482  and  _485
REMARK  197  A    between atoms: _487  and  _489
REMARK  198  A    between atoms: _489  and  _490
REMARK  199  A    between atoms: _489  and  _492
REMARK  200  A    between atoms: _494  and  _496
REMARK  201  A    between atoms: _496  and  _497
REMARK  202  A    between atoms: _496  and  _499
REMARK  203  A    between atoms: _499  and  _500
REMARK  204  A    between atoms: _503  and  _505
REMARK  205  A    between atoms: _505  and  _506
REMARK  206  A    between atoms: _508  and  _510
REMARK  207  A    between atoms: _510  and  _511
REMARK  208  A    between atoms: _510  and  _513
REMARK  209  A    between atoms: _513  and  _514
REMARK  210  A    between atoms: _519  and  _520
REMARK  211  A    between atoms: _522  and  _524
REMARK  212  A    between atoms: _524  and  _525
REMARK  213  A    between atoms: _524  and  _527
REMARK  214  A    between atoms: _527  and  _528
REMARK  215  A    between atoms: _531  and  _533
REMARK  216  A    between atoms: _533  and  _534
REMARK  217  A    between atoms: _533  and  _536
REMARK  218  A    between atoms: _536  and  _537
REMARK  219  A    between atoms: _542  and  _544
REMARK  220  A    between atoms: _544  and  _545
REMARK  221  A    between atoms: _544  and  _547
REMARK  222  A    between atoms: _547  and  _548
REMARK  223  A    between atoms: _551  and  _553
REMARK  224  A    between atoms: _553  and  _554
REMARK  225  A    between atoms: _553  and  _556
REMARK  226  A    between atoms: _556  and  _557
REMARK  227  A    between atoms: _559  and  _561
REMARK  228  A    between atoms: _561  and  _562
REMARK  229  A    between atoms: _561  and  _564
REMARK  230  A    between atoms: _564  and  _565
REMARK  231  A    between atoms: _568  and  _570
REMARK  232  A    between atoms: _570  and  _571
REMARK  233  A    between atoms: _570  and  _573
REMARK  234  A    between atoms: _573  and  _574
REMARK  235  A    between atoms: _574  and  _575
REMARK  236  A    between atoms: _578  and  _580
REMARK  237  A    between atoms: _580  and  _581
REMARK  238  A    between atoms: _580  and  _583
REMARK  239  A    between atoms: _583  and  _584
REMARK  240  A    between atoms: _587  and  _589
REMARK  241  A    between atoms: _589  and  _590
REMARK  242  A    between atoms: _592  and  _594
REMARK  243  A    between atoms: _594  and  _595
REMARK  244  A    between atoms: _594  and  _597
REMARK  245  A    between atoms: _597  and  _598
REMARK  246  A    between atoms: _601  and  _603
REMARK  247  A    between atoms: _603  and  _604
REMARK  248  A    between atoms: _603  and  _606
REMARK  249  A    between atoms: _606  and  _607
REMARK  250  A    between atoms: _609  and  _611
REMARK  251  A    between atoms: _611  and  _612
REMARK  252  A    between atoms: _615  and  _617
REMARK  253  A    between atoms: _617  and  _618
REMARK  254  A    between atoms: _617  and  _620
REMARK  255  A    between atoms: _620  and  _621
REMARK  256  A    between atoms: _623  and  _625
REMARK  257  A    between atoms: _625  and  _626
REMARK                            x       y       z     vdW  Elec       q    Type
REMARK                         _______ _______ _______ _____ _____    ______ ____
ROOT
ATOM      1  O   HOH     1      14.156  26.403  -5.812  0.00  0.00    +0.000 OA
ENDROOT
TORSDOF 0
REMARK  Name = ../refined-set-2016/4omc/4omc_pocket.pdb
REMARK  257 active torsions:
REMARK  status: ('A' for Active; 'I' for Inactive)
REMARK    1  A    between atoms: _1  and  _3
REMARK    2  A    between atoms: _3  and  _4
REMARK    3  A    between atoms: _3  and  _6
REMARK    4  A    between atoms: _6  and  _7
REMARK    5  A    between atoms: _10  and  _12
REMARK    6  A    between atoms: _12  and  _13
REMARK    7  A    between atoms: _12  and  _15
REMARK    8  A    between atoms: _15  and  _16
REMARK    9  A    between atoms: _19  and  _21
REMARK   10  A    between atoms: _21  and  _22
REMARK   11  A    between atoms: _24  and  _26
REMARK   12  A    between atoms: _26  and  _27
REMARK   13  A    between atoms: _26  and  _29
REMARK   14  A    between atoms: _29  and  _30
REMARK   15  A    between atoms: _35  and  _37
REMARK   16  A    between atoms: _37  and  _38
REMARK   17  A    between atoms: _37  and  _40
REMARK   18  A    between atoms: _40  and  _41
REMARK   19  A    between atoms: _41  and  _42
REMARK   20  A    between atoms: _42  and  _43
REMARK   21  A    between atoms: _52  and  _54
REMARK   22  A    between atoms: _54  and  _55
REMARK   23  A    between atoms: _54  and  _57
REMARK   24  A    between atoms: _57  and  _58
REMARK   25  A    between atoms: _61  and  _63
REMARK   26  A    between atoms: _63  and  _64
REMARK   27  A    between atoms: _63  and  _66
REMARK   28  A    between atoms: _66  and  _67
REMARK   29  A    between atoms: _72  and  _74
REMARK   30  A    between atoms: _74  and  _75
REMARK   31  A    between atoms: _74  and  _77
REMARK   32  A    between atoms: _77  and  _78
REMARK   33  A    between atoms: _81  and  _83
REMARK   34  A    between atoms: _83  and  _84
REMARK   35  A    between atoms: _83  and  _86
REMARK   36  A    between atoms: _86  and  _87
REMARK   37  A    between atoms: _92  and  _94
REMARK   38  A    between atoms: _94  and  _95
REMARK   39  A    between atoms: _94  and  _97
REMARK   40  A    between atoms: _97  and  _98
REMARK   41  A    between atoms: _98  and  _99
REMARK   42  A    between atoms: _99  and  _100
REMARK   43  A    between atoms: _109  and  _111
REMARK   44  A    between atoms: _111  and  _112
REMARK   45  A    between atoms: _111  and  _114
REMARK   46  A    between atoms: _114  and  _115
REMARK   47  A    between atoms: _120  and  _122
REMARK   48  A    between atoms: _122  and  _123
REMARK   49  A    between atoms: _125  and  _127
REMARK   50  A    between atoms: _127  and  _128
REMARK   51  A    between atoms: _127  and  _130
REMARK   52  A    between atoms: _130  and  _131
REMARK   53  A    between atoms: _134  and  _136
REMARK   54  A    between atoms: _136  and  _137
REMARK   55  A    between atoms: _136  and  _139
REMARK   56  A    between atoms: _141  and  _143
REMARK   57  A    between atoms: _143  and  _144
REMARK   58  A    between atoms: _143  and  _146
REMARK   59  A    between atoms: _146  and  _147
REMARK   60  A    between atoms: _147  and  _148
REMARK   61  A    between atoms: _148  and  _149
REMARK   62  A    between atoms: _158  and  _160
REMARK   63  A    between atoms: _160  and  _161
REMARK   64  A    between atoms: _160  and  _163
REMARK   65  A    between atoms: _163  and  _164
REMARK   66  A    between atoms: _164  and  _165
REMARK   67  A    between atoms: _167  and  _169
REMARK   68  A    between atoms: _169  and  _170
REMARK   69  A    between atoms: _169  and  _172
REMARK   70  A    between atoms: _172  and  _173
REMARK   71  A    between atoms: _176  and  _178
REMARK   72  A    between atoms: _178  and  _179
REMARK   73  A    between atoms: _178  and  _181
REMARK   74  A    between atoms: _181  and  _182
REMARK   75  A    between atoms: _185  and  _187
REMARK   76  A    between atoms: _187  and  _188
REMARK   77  A    between atoms: _190  and  _192
REMARK   78  A    between atoms: _192  and  _193
REMARK   79  A    between atoms: _192  and  _195
REMARK   80  A    between atoms: _195  and  _196
REMARK   81  A    between atoms: _196  and  _197
REMARK   82  A    between atoms: _200  and  _202
REMARK   83  A    between atoms: _202  and  _203
REMARK   84  A    between atoms: _202  and  _205
REMARK   85  A    between atoms: _208  and  _210
REMARK   86  A    between atoms: _210  and  _211
REMARK   87  A    between atoms: _210  and  _213
REMARK   88  A    between atoms: _213  and  _214
REMARK   89  A    between atoms: _217  and  _219
REMARK   90  A    between atoms: _219  and  _220
REMARK   91  A    between atoms: _219  and  _222
REMARK   92  A    between atoms: _222  and  _223
REMARK   93  A    between atoms: _226  and  _228
REMARK   94  A    between atoms: _228  and  _229
REMARK   95  A    between atoms: _232  and  _234
REMARK   96  A    between atoms: _234  and  _235
REMARK   97  A    between atoms: _234  and  _237
REMARK   98  A    between atoms: _240  and  _242
REMARK   99  A    between atoms: _242  and  _243
REMARK  100  A    between atoms: _242  and  _245
REMARK  101  A    between atoms: _245  and  _246
REMARK  102  A    between atoms: _246  and  _247
REMARK  103  A    between atoms: _250  and  _252
REMARK  104  A    between atoms: _252  and  _253
REMARK  105  A    between atoms: _256  and  _258
REMARK  106  A    between atoms: _258  and  _259
REMARK  107  A    between atoms: _262  and  _264
REMARK  108  A    between atoms: _264  and  _265
REMARK  109  A    between atoms: _264  and  _267
REMARK  110  A    between atoms: _267  and  _268
REMARK  111  A    between atoms: _270  and  _272
REMARK  112  A    between atoms: _272  and  _273
REMARK  113  A    between atoms: _272  and  _275
REMARK  114  A    between atoms: _275  and  _276
REMARK  115  A    between atoms: _286  and  _288
REMARK  116  A    between atoms: _288  and  _289
REMARK  117  A    between atoms: _292  and  _293
REMARK  118  A    between atoms: _298  and  _300
REMARK  119  A    between atoms: _300  and  _301
REMARK  120  A    between atoms: _300  and  _303
REMARK  121  A    between atoms: _303  and  _304
REMARK  122  A    between atoms: _304  and  _305
REMARK  123  A    between atoms: _308  and  _310
REMARK  124  A    between atoms: _310  and  _311
REMARK  125  A    between atoms: _310  and  _313
REMARK  126  A    between atoms: _313  and  _314
REMARK  127  A    between atoms: _314  and  _315
REMARK  128  A    between atoms: _315  and  CA_629
REMARK  129  A    between atoms: _317  and  _319
REMARK  130  A    between atoms: _319  and  _320
REMARK  131  A    between atoms: _319  and  _322
REMARK  132  A    between atoms: _322  and  _323
REMARK  133  A    between atoms: _326  and  _328
REMARK  134  A    between atoms: _328  and  _329
REMARK  135  A    between atoms: _328  and  _331
REMARK  136  A    between atoms: _331  and  _332
REMARK  137  A    between atoms: _335  and  _337
REMARK  138  A    between atoms: _337  and  _338
REMARK  139  A    between atoms: _337  and  _340
REMARK  140  A    between atoms: _343  and  _345
REMARK  141  A    between atoms: _345  and  _346
REMARK  142  A    between atoms: _345  and  _348
REMARK  143  A    between atoms: _348  and  _349
REMARK  144  A    between atoms: _352  and  _354
REMARK  145  A    between atoms: _354  and  _355
REMARK  146  A    between atoms: _358  and  _359
REMARK  147  A    between atoms: _364  and  _366
REMARK  148  A    between atoms: _366  and  _367
REMARK  149  A    between atoms: _370  and  _372
REMARK  150  A    between atoms: _372  and  _373
REMARK  151  A    between atoms: _372  and  _375
REMARK  152  A    between atoms: _375  and  _376
REMARK  153  A    between atoms: _376  and  _377
REMARK  154  A    between atoms: _377  and  _378
REMARK  155  A    between atoms: _387  and  _389
REMARK  156  A    between atoms: _389  and  _390
REMARK  157  A    between atoms: _389  and  _392
REMARK  158  A    between atoms: _392  and  _393
REMARK  159  A    between atoms: _396  and  _398
REMARK  160  A    between atoms: _398  and  _399
REMARK  161  A    between atoms: _402  and  _404
REMARK  162  A    between atoms: _404  and  _405
REMARK  163  A    between atoms: _404  and  _407
REMARK  164  A    between atoms: _407  and  _408
REMARK  165  A    between atoms: _408  and  _409
REMARK  166  A    between atoms: _412  and  _414
REMARK  167  A    between atoms: _414  and  _415
REMARK  168  A    between atoms: _414  and  _417
REMARK  169  A    between atoms: _417  and  _418
REMARK  170  A    between atoms: _428  and  _430
REMARK  171  A    between atoms: _430  and  _431
REMARK  172  A    between atoms: _434  and  _436
REMARK  173  A    between atoms: _436  and  _437
REMARK  174  A    between atoms: _436  and  _439
REMARK  175  A    between atoms: _439  and  _440
REMARK  176  A    between atoms: _442  and  _444
REMARK  177  A    between atoms: _444  and  _445
REMARK  178  A    between atoms: _447  and  _449
REMARK  179  A    between atoms: _449  and  _450
REMARK  180  A    between atoms: _449  and  _452
REMARK  181  A    between atoms: _452  and  _453
REMARK  182  A    between atoms: _458  and  _460
REMARK  183  A    between atoms: _460  and  _461
REMARK  184  A    between atoms: _463  and  _465
REMARK  185  A    between atoms: _465  and  _466
REMARK  186  A    between atoms: _465  and  _468
REMARK  187  A    between atoms: _468  and  _469
REMARK  188  A    between atoms: _469  and  _471
REMARK  189  A    between atoms: _471  and  CA_629
REMARK  190  A    between atoms: _472  and  _474
REMARK  191  A    between atoms: _474  and  _475
REMARK  192  A    between atoms: _474  and  _477
REMARK  193  A    between atoms: _477  and  _478
REMARK  194  A    between atoms: _480  and  _482
REMARK  195  A    between atoms: _482  and  _483
REMARK  196  A    between atoms: _482  and  _485
REMARK  197  A    between atoms: _487  and  _489
REMARK  198  A    between atoms: _489  and  _490
REMARK  199  A    between atoms: _489  and  _492
REMARK  200  A    between atoms: _494  and  _496
REMARK  201  A    between atoms: _496  and  _497
REMARK  202  A    between atoms: _496  and  _499
REMARK  203  A    between atoms: _499  and  _500
REMARK  204  A    between atoms: _503  and  _505
REMARK  205  A    between atoms: _505  and  _506
REMARK  206  A    between atoms: _508  and  _510
REMARK  207  A    between atoms: _510  and  _511
REMARK  208  A    between atoms: _510  and  _513
REMARK  209  A    between atoms: _513  and  _514
REMARK  210  A    between atoms: _519  and  _520
REMARK  211  A    between atoms: _522  and  _524
REMARK  212  A    between atoms: _524  and  _525
REMARK  213  A    between atoms: _524  and  _527
REMARK  214  A    between atoms: _527  and  _528
REMARK  215  A    between atoms: _531  and  _533
REMARK  216  A    between atoms: _533  and  _534
REMARK  217  A    between atoms: _533  and  _536
REMARK  218  A    between atoms: _536  and  _537
REMARK  219  A    between atoms: _542  and  _544
REMARK  220  A    between atoms: _544  and  _545
REMARK  221  A    between atoms: _544  and  _547
REMARK  222  A    between atoms: _547  and  _548
REMARK  223  A    between atoms: _551  and  _553
REMARK  224  A    between atoms: _553  and  _554
REMARK  225  A    between atoms: _553  and  _556
REMARK  226  A    between atoms: _556  and  _557
REMARK  227  A    between atoms: _559  and  _561
REMARK  228  A    between atoms: _561  and  _562
REMARK  229  A    between atoms: _561  and  _564
REMARK  230  A    between atoms: _564  and  _565
REMARK  231  A    between atoms: _568  and  _570
REMARK  232  A    between atoms: _570  and  _571
REMARK  233  A    between atoms: _570  and  _573
REMARK  234  A    between atoms: _573  and  _574
REMARK  235  A    between atoms: _574  and  _575
REMARK  236  A    between atoms: _578  and  _580
REMARK  237  A    between atoms: _580  and  _581
REMARK  238  A    between atoms: _580  and  _583
REMARK  239  A    between atoms: _583  and  _584
REMARK  240  A    between atoms: _587  and  _589
REMARK  241  A    between atoms: _589  and  _590
REMARK  242  A    between atoms: _592  and  _594
REMARK  243  A    between atoms: _594  and  _595
REMARK  244  A    between atoms: _594  and  _597
REMARK  245  A    between atoms: _597  and  _598
REMARK  246  A    between atoms: _601  and  _603
REMARK  247  A    between atoms: _603  and  _604
REMARK  248  A    between atoms: _603  and  _606
REMARK  249  A    between atoms: _606  and  _607
REMARK  250  A    between atoms: _609  and  _611
REMARK  251  A    between atoms: _611  and  _612
REMARK  252  A    between atoms: _615  and  _617
REMARK  253  A    between atoms: _617  and  _618
REMARK  254  A    between atoms: _617  and  _620
REMARK  255  A    between atoms: _620  and  _621
REMARK  256  A    between atoms: _623  and  _625
REMARK  257  A    between atoms: _625  and  _626
REMARK                            x       y       z     vdW  Elec       q    Type
REMARK                         _______ _______ _______ _____ _____    ______ ____
ROOT
ATOM      1  O   HOH     1      30.818  44.569  -2.243  0.00  0.00    +0.000 OA
ENDROOT
TORSDOF 0
REMARK  Name = ../refined-set-2016/4omc/4omc_pocket.pdb
REMARK  257 active torsions:
REMARK  status: ('A' for Active; 'I' for Inactive)
REMARK    1  A    between atoms: _1  and  _3
REMARK    2  A    between atoms: _3  and  _4
REMARK    3  A    between atoms: _3  and  _6
REMARK    4  A    between atoms: _6  and  _7
REMARK    5  A    between atoms: _10  and  _12
REMARK    6  A    between atoms: _12  and  _13
REMARK    7  A    between atoms: _12  and  _15
REMARK    8  A    between atoms: _15  and  _16
REMARK    9  A    between atoms: _19  and  _21
REMARK   10  A    between atoms: _21  and  _22
REMARK   11  A    between atoms: _24  and  _26
REMARK   12  A    between atoms: _26  and  _27
REMARK   13  A    between atoms: _26  and  _29
REMARK   14  A    between atoms: _29  and  _30
REMARK   15  A    between atoms: _35  and  _37
REMARK   16  A    between atoms: _37  and  _38
REMARK   17  A    between atoms: _37  and  _40
REMARK   18  A    between atoms: _40  and  _41
REMARK   19  A    between atoms: _41  and  _42
REMARK   20  A    between atoms: _42  and  _43
REMARK   21  A    between atoms: _52  and  _54
REMARK   22  A    between atoms: _54  and  _55
REMARK   23  A    between atoms: _54  and  _57
REMARK   24  A    between atoms: _57  and  _58
REMARK   25  A    between atoms: _61  and  _63
REMARK   26  A    between atoms: _63  and  _64
REMARK   27  A    between atoms: _63  and  _66
REMARK   28  A    between atoms: _66  and  _67
REMARK   29  A    between atoms: _72  and  _74
REMARK   30  A    between atoms: _74  and  _75
REMARK   31  A    between atoms: _74  and  _77
REMARK   32  A    between atoms: _77  and  _78
REMARK   33  A    between atoms: _81  and  _83
REMARK   34  A    between atoms: _83  and  _84
REMARK   35  A    between atoms: _83  and  _86
REMARK   36  A    between atoms: _86  and  _87
REMARK   37  A    between atoms: _92  and  _94
REMARK   38  A    between atoms: _94  and  _95
REMARK   39  A    between atoms: _94  and  _97
REMARK   40  A    between atoms: _97  and  _98
REMARK   41  A    between atoms: _98  and  _99
REMARK   42  A    between atoms: _99  and  _100
REMARK   43  A    between atoms: _109  and  _111
REMARK   44  A    between atoms: _111  and  _112
REMARK   45  A    between atoms: _111  and  _114
REMARK   46  A    between atoms: _114  and  _115
REMARK   47  A    between atoms: _120  and  _122
REMARK   48  A    between atoms: _122  and  _123
REMARK   49  A    between atoms: _125  and  _127
REMARK   50  A    between atoms: _127  and  _128
REMARK   51  A    between atoms: _127  and  _130
REMARK   52  A    between atoms: _130  and  _131
REMARK   53  A    between atoms: _134  and  _136
REMARK   54  A    between atoms: _136  and  _137
REMARK   55  A    between atoms: _136  and  _139
REMARK   56  A    between atoms: _141  and  _143
REMARK   57  A    between atoms: _143  and  _144
REMARK   58  A    between atoms: _143  and  _146
REMARK   59  A    between atoms: _146  and  _147
REMARK   60  A    between atoms: _147  and  _148
REMARK   61  A    between atoms: _148  and  _149
REMARK   62  A    between atoms: _158  and  _160
REMARK   63  A    between atoms: _160  and  _161
REMARK   64  A    between atoms: _160  and  _163
REMARK   65  A    between atoms: _163  and  _164
REMARK   66  A    between atoms: _164  and  _165
REMARK   67  A    between atoms: _167  and  _169
REMARK   68  A    between atoms: _169  and  _170
REMARK   69  A    between atoms: _169  and  _172
REMARK   70  A    between atoms: _172  and  _173
REMARK   71  A    between atoms: _176  and  _178
REMARK   72  A    between atoms: _178  and  _179
REMARK   73  A    between atoms: _178  and  _181
REMARK   74  A    between atoms: _181  and  _182
REMARK   75  A    between atoms: _185  and  _187
REMARK   76  A    between atoms: _187  and  _188
REMARK   77  A    between atoms: _190  and  _192
REMARK   78  A    between atoms: _192  and  _193
REMARK   79  A    between atoms: _192  and  _195
REMARK   80  A    between atoms: _195  and  _196
REMARK   81  A    between atoms: _196  and  _197
REMARK   82  A    between atoms: _200  and  _202
REMARK   83  A    between atoms: _202  and  _203
REMARK   84  A    between atoms: _202  and  _205
REMARK   85  A    between atoms: _208  and  _210
REMARK   86  A    between atoms: _210  and  _211
REMARK   87  A    between atoms: _210  and  _213
REMARK   88  A    between atoms: _213  and  _214
REMARK   89  A    between atoms: _217  and  _219
REMARK   90  A    between atoms: _219  and  _220
REMARK   91  A    between atoms: _219  and  _222
REMARK   92  A    between atoms: _222  and  _223
REMARK   93  A    between atoms: _226  and  _228
REMARK   94  A    between atoms: _228  and  _229
REMARK   95  A    between atoms: _232  and  _234
REMARK   96  A    between atoms: _234  and  _235
REMARK   97  A    between atoms: _234  and  _237
REMARK   98  A    between atoms: _240  and  _242
REMARK   99  A    between atoms: _242  and  _243
REMARK  100  A    between atoms: _242  and  _245
REMARK  101  A    between atoms: _245  and  _246
REMARK  102  A    between atoms: _246  and  _247
REMARK  103  A    between atoms: _250  and  _252
REMARK  104  A    between atoms: _252  and  _253
REMARK  105  A    between atoms: _256  and  _258
REMARK  106  A    between atoms: _258  and  _259
REMARK  107  A    between atoms: _262  and  _264
REMARK  108  A    between atoms: _264  and  _265
REMARK  109  A    between atoms: _264  and  _267
REMARK  110  A    between atoms: _267  and  _268
REMARK  111  A    between atoms: _270  and  _272
REMARK  112  A    between atoms: _272  and  _273
REMARK  113  A    between atoms: _272  and  _275
REMARK  114  A    between atoms: _275  and  _276
REMARK  115  A    between atoms: _286  and  _288
REMARK  116  A    between atoms: _288  and  _289
REMARK  117  A    between atoms: _292  and  _293
REMARK  118  A    between atoms: _298  and  _300
REMARK  119  A    between atoms: _300  and  _301
REMARK  120  A    between atoms: _300  and  _303
REMARK  121  A    between atoms: _303  and  _304
REMARK  122  A    between atoms: _304  and  _305
REMARK  123  A    between atoms: _308  and  _310
REMARK  124  A    between atoms: _310  and  _311
REMARK  125  A    between atoms: _310  and  _313
REMARK  126  A    between atoms: _313  and  _314
REMARK  127  A    between atoms: _314  and  _315
REMARK  128  A    between atoms: _315  and  CA_629
REMARK  129  A    between atoms: _317  and  _319
REMARK  130  A    between atoms: _319  and  _320
REMARK  131  A    between atoms: _319  and  _322
REMARK  132  A    between atoms: _322  and  _323
REMARK  133  A    between atoms: _326  and  _328
REMARK  134  A    between atoms: _328  and  _329
REMARK  135  A    between atoms: _328  and  _331
REMARK  136  A    between atoms: _331  and  _332
REMARK  137  A    between atoms: _335  and  _337
REMARK  138  A    between atoms: _337  and  _338
REMARK  139  A    between atoms: _337  and  _340
REMARK  140  A    between atoms: _343  and  _345
REMARK  141  A    between atoms: _345  and  _346
REMARK  142  A    between atoms: _345  and  _348
REMARK  143  A    between atoms: _348  and  _349
REMARK  144  A    between atoms: _352  and  _354
REMARK  145  A    between atoms: _354  and  _355
REMARK  146  A    between atoms: _358  and  _359
REMARK  147  A    between atoms: _364  and  _366
REMARK  148  A    between atoms: _366  and  _367
REMARK  149  A    between atoms: _370  and  _372
REMARK  150  A    between atoms: _372  and  _373
REMARK  151  A    between atoms: _372  and  _375
REMARK  152  A    between atoms: _375  and  _376
REMARK  153  A    between atoms: _376  and  _377
REMARK  154  A    between atoms: _377  and  _378
REMARK  155  A    between atoms: _387  and  _389
REMARK  156  A    between atoms: _389  and  _390
REMARK  157  A    between atoms: _389  and  _392
REMARK  158  A    between atoms: _392  and  _393
REMARK  159  A    between atoms: _396  and  _398
REMARK  160  A    between atoms: _398  and  _399
REMARK  161  A    between atoms: _402  and  _404
REMARK  162  A    between atoms: _404  and  _405
REMARK  163  A    between atoms: _404  and  _407
REMARK  164  A    between atoms: _407  and  _408
REMARK  165  A    between atoms: _408  and  _409
REMARK  166  A    between atoms: _412  and  _414
REMARK  167  A    between atoms: _414  and  _415
REMARK  168  A    between atoms: _414  and  _417
REMARK  169  A    between atoms: _417  and  _418
REMARK  170  A    between atoms: _428  and  _430
REMARK  171  A    between atoms: _430  and  _431
REMARK  172  A    between atoms: _434  and  _436
REMARK  173  A    between atoms: _436  and  _437
REMARK  174  A    between atoms: _436  and  _439
REMARK  175  A    between atoms: _439  and  _440
REMARK  176  A    between atoms: _442  and  _444
REMARK  177  A    between atoms: _444  and  _445
REMARK  178  A    between atoms: _447  and  _449
REMARK  179  A    between atoms: _449  and  _450
REMARK  180  A    between atoms: _449  and  _452
REMARK  181  A    between atoms: _452  and  _453
REMARK  182  A    between atoms: _458  and  _460
REMARK  183  A    between atoms: _460  and  _461
REMARK  184  A    between atoms: _463  and  _465
REMARK  185  A    between atoms: _465  and  _466
REMARK  186  A    between atoms: _465  and  _468
REMARK  187  A    between atoms: _468  and  _469
REMARK  188  A    between atoms: _469  and  _471
REMARK  189  A    between atoms: _471  and  CA_629
REMARK  190  A    between atoms: _472  and  _474
REMARK  191  A    between atoms: _474  and  _475
REMARK  192  A    between atoms: _474  and  _477
REMARK  193  A    between atoms: _477  and  _478
REMARK  194  A    between atoms: _480  and  _482
REMARK  195  A    between atoms: _482  and  _483
REMARK  196  A    between atoms: _482  and  _485
REMARK  197  A    between atoms: _487  and  _489
REMARK  198  A    between atoms: _489  and  _490
REMARK  199  A    between atoms: _489  and  _492
REMARK  200  A    between atoms: _494  and  _496
REMARK  201  A    between atoms: _496  and  _497
REMARK  202  A    between atoms: _496  and  _499
REMARK  203  A    between atoms: _499  and  _500
REMARK  204  A    between atoms: _503  and  _505
REMARK  205  A    between atoms: _505  and  _506
REMARK  206  A    between atoms: _508  and  _510
REMARK  207  A    between atoms: _510  and  _511
REMARK  208  A    between atoms: _510  and  _513
REMARK  209  A    between atoms: _513  and  _514
REMARK  210  A    between atoms: _519  and  _520
REMARK  211  A    between atoms: _522  and  _524
REMARK  212  A    between atoms: _524  and  _525
REMARK  213  A    between atoms: _524  and  _527
REMARK  214  A    between atoms: _527  and  _528
REMARK  215  A    between atoms: _531  and  _533
REMARK  216  A    between atoms: _533  and  _534
REMARK  217  A    between atoms: _533  and  _536
REMARK  218  A    between atoms: _536  and  _537
REMARK  219  A    between atoms: _542  and  _544
REMARK  220  A    between atoms: _544  and  _545
REMARK  221  A    between atoms: _544  and  _547
REMARK  222  A    between atoms: _547  and  _548
REMARK  223  A    between atoms: _551  and  _553
REMARK  224  A    between atoms: _553  and  _554
REMARK  225  A    between atoms: _553  and  _556
REMARK  226  A    between atoms: _556  and  _557
REMARK  227  A    between atoms: _559  and  _561
REMARK  228  A    between atoms: _561  and  _562
REMARK  229  A    between atoms: _561  and  _564
REMARK  230  A    between atoms: _564  and  _565
REMARK  231  A    between atoms: _568  and  _570
REMARK  232  A    between atoms: _570  and  _571
REMARK  233  A    between atoms: _570  and  _573
REMARK  234  A    between atoms: _573  and  _574
REMARK  235  A    between atoms: _574  and  _575
REMARK  236  A    between atoms: _578  and  _580
REMARK  237  A    between atoms: _580  and  _581
REMARK  238  A    between atoms: _580  and  _583
REMARK  239  A    between atoms: _583  and  _584
REMARK  240  A    between atoms: _587  and  _589
REMARK  241  A    between atoms: _589  and  _590
REMARK  242  A    between atoms: _592  and  _594
REMARK  243  A    between atoms: _594  and  _595
REMARK  244  A    between atoms: _594  and  _597
REMARK  245  A    between atoms: _597  and  _598
REMARK  246  A    between atoms: _601  and  _603
REMARK  247  A    between atoms: _603  and  _604
REMARK  248  A    between atoms: _603  and  _606
REMARK  249  A    between atoms: _606  and  _607
REMARK  250  A    between atoms: _609  and  _611
REMARK  251  A    between atoms: _611  and  _612
REMARK  252  A    between atoms: _615  and  _617
REMARK  253  A    between atoms: _617  and  _618
REMARK  254  A    between atoms: _617  and  _620
REMARK  255  A    between atoms: _620  and  _621
REMARK  256  A    between atoms: _623  and  _625
REMARK  257  A    between atoms: _625  and  _626
REMARK                            x       y       z     vdW  Elec       q    Type
REMARK                         _______ _______ _______ _____ _____    ______ ____
ROOT
ATOM      1  O   HOH     1      14.051  28.142  -2.839  0.00  0.00    +0.000 OA
ENDROOT
TORSDOF 0
REMARK  Name = ../refined-set-2016/4omc/4omc_pocket.pdb
REMARK  257 active torsions:
REMARK  status: ('A' for Active; 'I' for Inactive)
REMARK    1  A    between atoms: _1  and  _3
REMARK    2  A    between atoms: _3  and  _4
REMARK    3  A    between atoms: _3  and  _6
REMARK    4  A    between atoms: _6  and  _7
REMARK    5  A    between atoms: _10  and  _12
REMARK    6  A    between atoms: _12  and  _13
REMARK    7  A    between atoms: _12  and  _15
REMARK    8  A    between atoms: _15  and  _16
REMARK    9  A    between atoms: _19  and  _21
REMARK   10  A    between atoms: _21  and  _22
REMARK   11  A    between atoms: _24  and  _26
REMARK   12  A    between atoms: _26  and  _27
REMARK   13  A    between atoms: _26  and  _29
REMARK   14  A    between atoms: _29  and  _30
REMARK   15  A    between atoms: _35  and  _37
REMARK   16  A    between atoms: _37  and  _38
REMARK   17  A    between atoms: _37  and  _40
REMARK   18  A    between atoms: _40  and  _41
REMARK   19  A    between atoms: _41  and  _42
REMARK   20  A    between atoms: _42  and  _43
REMARK   21  A    between atoms: _52  and  _54
REMARK   22  A    between atoms: _54  and  _55
REMARK   23  A    between atoms: _54  and  _57
REMARK   24  A    between atoms: _57  and  _58
REMARK   25  A    between atoms: _61  and  _63
REMARK   26  A    between atoms: _63  and  _64
REMARK   27  A    between atoms: _63  and  _66
REMARK   28  A    between atoms: _66  and  _67
REMARK   29  A    between atoms: _72  and  _74
REMARK   30  A    between atoms: _74  and  _75
REMARK   31  A    between atoms: _74  and  _77
REMARK   32  A    between atoms: _77  and  _78
REMARK   33  A    between atoms: _81  and  _83
REMARK   34  A    between atoms: _83  and  _84
REMARK   35  A    between atoms: _83  and  _86
REMARK   36  A    between atoms: _86  and  _87
REMARK   37  A    between atoms: _92  and  _94
REMARK   38  A    between atoms: _94  and  _95
REMARK   39  A    between atoms: _94  and  _97
REMARK   40  A    between atoms: _97  and  _98
REMARK   41  A    between atoms: _98  and  _99
REMARK   42  A    between atoms: _99  and  _100
REMARK   43  A    between atoms: _109  and  _111
REMARK   44  A    between atoms: _111  and  _112
REMARK   45  A    between atoms: _111  and  _114
REMARK   46  A    between atoms: _114  and  _115
REMARK   47  A    between atoms: _120  and  _122
REMARK   48  A    between atoms: _122  and  _123
REMARK   49  A    between atoms: _125  and  _127
REMARK   50  A    between atoms: _127  and  _128
REMARK   51  A    between atoms: _127  and  _130
REMARK   52  A    between atoms: _130  and  _131
REMARK   53  A    between atoms: _134  and  _136
REMARK   54  A    between atoms: _136  and  _137
REMARK   55  A    between atoms: _136  and  _139
REMARK   56  A    between atoms: _141  and  _143
REMARK   57  A    between atoms: _143  and  _144
REMARK   58  A    between atoms: _143  and  _146
REMARK   59  A    between atoms: _146  and  _147
REMARK   60  A    between atoms: _147  and  _148
REMARK   61  A    between atoms: _148  and  _149
REMARK   62  A    between atoms: _158  and  _160
REMARK   63  A    between atoms: _160  and  _161
REMARK   64  A    between atoms: _160  and  _163
REMARK   65  A    between atoms: _163  and  _164
REMARK   66  A    between atoms: _164  and  _165
REMARK   67  A    between atoms: _167  and  _169
REMARK   68  A    between atoms: _169  and  _170
REMARK   69  A    between atoms: _169  and  _172
REMARK   70  A    between atoms: _172  and  _173
REMARK   71  A    between atoms: _176  and  _178
REMARK   72  A    between atoms: _178  and  _179
REMARK   73  A    between atoms: _178  and  _181
REMARK   74  A    between atoms: _181  and  _182
REMARK   75  A    between atoms: _185  and  _187
REMARK   76  A    between atoms: _187  and  _188
REMARK   77  A    between atoms: _190  and  _192
REMARK   78  A    between atoms: _192  and  _193
REMARK   79  A    between atoms: _192  and  _195
REMARK   80  A    between atoms: _195  and  _196
REMARK   81  A    between atoms: _196  and  _197
REMARK   82  A    between atoms: _200  and  _202
REMARK   83  A    between atoms: _202  and  _203
REMARK   84  A    between atoms: _202  and  _205
REMARK   85  A    between atoms: _208  and  _210
REMARK   86  A    between atoms: _210  and  _211
REMARK   87  A    between atoms: _210  and  _213
REMARK   88  A    between atoms: _213  and  _214
REMARK   89  A    between atoms: _217  and  _219
REMARK   90  A    between atoms: _219  and  _220
REMARK   91  A    between atoms: _219  and  _222
REMARK   92  A    between atoms: _222  and  _223
REMARK   93  A    between atoms: _226  and  _228
REMARK   94  A    between atoms: _228  and  _229
REMARK   95  A    between atoms: _232  and  _234
REMARK   96  A    between atoms: _234  and  _235
REMARK   97  A    between atoms: _234  and  _237
REMARK   98  A    between atoms: _240  and  _242
REMARK   99  A    between atoms: _242  and  _243
REMARK  100  A    between atoms: _242  and  _245
REMARK  101  A    between atoms: _245  and  _246
REMARK  102  A    between atoms: _246  and  _247
REMARK  103  A    between atoms: _250  and  _252
REMARK  104  A    between atoms: _252  and  _253
REMARK  105  A    between atoms: _256  and  _258
REMARK  106  A    between atoms: _258  and  _259
REMARK  107  A    between atoms: _262  and  _264
REMARK  108  A    between atoms: _264  and  _265
REMARK  109  A    between atoms: _264  and  _267
REMARK  110  A    between atoms: _267  and  _268
REMARK  111  A    between atoms: _270  and  _272
REMARK  112  A    between atoms: _272  and  _273
REMARK  113  A    between atoms: _272  and  _275
REMARK  114  A    between atoms: _275  and  _276
REMARK  115  A    between atoms: _286  and  _288
REMARK  116  A    between atoms: _288  and  _289
REMARK  117  A    between atoms: _292  and  _293
REMARK  118  A    between atoms: _298  and  _300
REMARK  119  A    between atoms: _300  and  _301
REMARK  120  A    between atoms: _300  and  _303
REMARK  121  A    between atoms: _303  and  _304
REMARK  122  A    between atoms: _304  and  _305
REMARK  123  A    between atoms: _308  and  _310
REMARK  124  A    between atoms: _310  and  _311
REMARK  125  A    between atoms: _310  and  _313
REMARK  126  A    between atoms: _313  and  _314
REMARK  127  A    between atoms: _314  and  _315
REMARK  128  A    between atoms: _315  and  CA_629
REMARK  129  A    between atoms: _317  and  _319
REMARK  130  A    between atoms: _319  and  _320
REMARK  131  A    between atoms: _319  and  _322
REMARK  132  A    between atoms: _322  and  _323
REMARK  133  A    between atoms: _326  and  _328
REMARK  134  A    between atoms: _328  and  _329
REMARK  135  A    between atoms: _328  and  _331
REMARK  136  A    between atoms: _331  and  _332
REMARK  137  A    between atoms: _335  and  _337
REMARK  138  A    between atoms: _337  and  _338
REMARK  139  A    between atoms: _337  and  _340
REMARK  140  A    between atoms: _343  and  _345
REMARK  141  A    between atoms: _345  and  _346
REMARK  142  A    between atoms: _345  and  _348
REMARK  143  A    between atoms: _348  and  _349
REMARK  144  A    between atoms: _352  and  _354
REMARK  145  A    between atoms: _354  and  _355
REMARK  146  A    between atoms: _358  and  _359
REMARK  147  A    between atoms: _364  and  _366
REMARK  148  A    between atoms: _366  and  _367
REMARK  149  A    between atoms: _370  and  _372
REMARK  150  A    between atoms: _372  and  _373
REMARK  151  A    between atoms: _372  and  _375
REMARK  152  A    between atoms: _375  and  _376
REMARK  153  A    between atoms: _376  and  _377
REMARK  154  A    between atoms: _377  and  _378
REMARK  155  A    between atoms: _387  and  _389
REMARK  156  A    between atoms: _389  and  _390
REMARK  157  A    between atoms: _389  and  _392
REMARK  158  A    between atoms: _392  and  _393
REMARK  159  A    between atoms: _396  and  _398
REMARK  160  A    between atoms: _398  and  _399
REMARK  161  A    between atoms: _402  and  _404
REMARK  162  A    between atoms: _404  and  _405
REMARK  163  A    between atoms: _404  and  _407
REMARK  164  A    between atoms: _407  and  _408
REMARK  165  A    between atoms: _408  and  _409
REMARK  166  A    between atoms: _412  and  _414
REMARK  167  A    between atoms: _414  and  _415
REMARK  168  A    between atoms: _414  and  _417
REMARK  169  A    between atoms: _417  and  _418
REMARK  170  A    between atoms: _428  and  _430
REMARK  171  A    between atoms: _430  and  _431
REMARK  172  A    between atoms: _434  and  _436
REMARK  173  A    between atoms: _436  and  _437
REMARK  174  A    between atoms: _436  and  _439
REMARK  175  A    between atoms: _439  and  _440
REMARK  176  A    between atoms: _442  and  _444
REMARK  177  A    between atoms: _444  and  _445
REMARK  178  A    between atoms: _447  and  _449
REMARK  179  A    between atoms: _449  and  _450
REMARK  180  A    between atoms: _449  and  _452
REMARK  181  A    between atoms: _452  and  _453
REMARK  182  A    between atoms: _458  and  _460
REMARK  183  A    between atoms: _460  and  _461
REMARK  184  A    between atoms: _463  and  _465
REMARK  185  A    between atoms: _465  and  _466
REMARK  186  A    between atoms: _465  and  _468
REMARK  187  A    between atoms: _468  and  _469
REMARK  188  A    between atoms: _469  and  _471
REMARK  189  A    between atoms: _471  and  CA_629
REMARK  190  A    between atoms: _472  and  _474
REMARK  191  A    between atoms: _474  and  _475
REMARK  192  A    between atoms: _474  and  _477
REMARK  193  A    between atoms: _477  and  _478
REMARK  194  A    between atoms: _480  and  _482
REMARK  195  A    between atoms: _482  and  _483
REMARK  196  A    between atoms: _482  and  _485
REMARK  197  A    between atoms: _487  and  _489
REMARK  198  A    between atoms: _489  and  _490
REMARK  199  A    between atoms: _489  and  _492
REMARK  200  A    between atoms: _494  and  _496
REMARK  201  A    between atoms: _496  and  _497
REMARK  202  A    between atoms: _496  and  _499
REMARK  203  A    between atoms: _499  and  _500
REMARK  204  A    between atoms: _503  and  _505
REMARK  205  A    between atoms: _505  and  _506
REMARK  206  A    between atoms: _508  and  _510
REMARK  207  A    between atoms: _510  and  _511
REMARK  208  A    between atoms: _510  and  _513
REMARK  209  A    between atoms: _513  and  _514
REMARK  210  A    between atoms: _519  and  _520
REMARK  211  A    between atoms: _522  and  _524
REMARK  212  A    between atoms: _524  and  _525
REMARK  213  A    between atoms: _524  and  _527
REMARK  214  A    between atoms: _527  and  _528
REMARK  215  A    between atoms: _531  and  _533
REMARK  216  A    between atoms: _533  and  _534
REMARK  217  A    between atoms: _533  and  _536
REMARK  218  A    between atoms: _536  and  _537
REMARK  219  A    between atoms: _542  and  _544
REMARK  220  A    between atoms: _544  and  _545
REMARK  221  A    between atoms: _544  and  _547
REMARK  222  A    between atoms: _547  and  _548
REMARK  223  A    between atoms: _551  and  _553
REMARK  224  A    between atoms: _553  and  _554
REMARK  225  A    between atoms: _553  and  _556
REMARK  226  A    between atoms: _556  and  _557
REMARK  227  A    between atoms: _559  and  _561
REMARK  228  A    between atoms: _561  and  _562
REMARK  229  A    between atoms: _561  and  _564
REMARK  230  A    between atoms: _564  and  _565
REMARK  231  A    between atoms: _568  and  _570
REMARK  232  A    between atoms: _570  and  _571
REMARK  233  A    between atoms: _570  and  _573
REMARK  234  A    between atoms: _573  and  _574
REMARK  235  A    between atoms: _574  and  _575
REMARK  236  A    between atoms: _578  and  _580
REMARK  237  A    between atoms: _580  and  _581
REMARK  238  A    between atoms: _580  and  _583
REMARK  239  A    between atoms: _583  and  _584
REMARK  240  A    between atoms: _587  and  _589
REMARK  241  A    between atoms: _589  and  _590
REMARK  242  A    between atoms: _592  and  _594
REMARK  243  A    between atoms: _594  and  _595
REMARK  244  A    between atoms: _594  and  _597
REMARK  245  A    between atoms: _597  and  _598
REMARK  246  A    between atoms: _601  and  _603
REMARK  247  A    between atoms: _603  and  _604
REMARK  248  A    between atoms: _603  and  _606
REMARK  249  A    between atoms: _606  and  _607
REMARK  250  A    between atoms: _609  and  _611
REMARK  251  A    between atoms: _611  and  _612
REMARK  252  A    between atoms: _615  and  _617
REMARK  253  A    between atoms: _617  and  _618
REMARK  254  A    between atoms: _617  and  _620
REMARK  255  A    between atoms: _620  and  _621
REMARK  256  A    between atoms: _623  and  _625
REMARK  257  A    between atoms: _625  and  _626
REMARK                            x       y       z     vdW  Elec       q    Type
REMARK                         _______ _______ _______ _____ _____    ______ ____
ROOT
ATOM      1  O   HOH     1      38.334  21.661  -4.181  0.00  0.00    +0.000 OA
ENDROOT
TORSDOF 0
REMARK  Name = ../refined-set-2016/4omc/4omc_pocket.pdb
REMARK  257 active torsions:
REMARK  status: ('A' for Active; 'I' for Inactive)
REMARK    1  A    between atoms: _1  and  _3
REMARK    2  A    between atoms: _3  and  _4
REMARK    3  A    between atoms: _3  and  _6
REMARK    4  A    between atoms: _6  and  _7
REMARK    5  A    between atoms: _10  and  _12
REMARK    6  A    between atoms: _12  and  _13
REMARK    7  A    between atoms: _12  and  _15
REMARK    8  A    between atoms: _15  and  _16
REMARK    9  A    between atoms: _19  and  _21
REMARK   10  A    between atoms: _21  and  _22
REMARK   11  A    between atoms: _24  and  _26
REMARK   12  A    between atoms: _26  and  _27
REMARK   13  A    between atoms: _26  and  _29
REMARK   14  A    between atoms: _29  and  _30
REMARK   15  A    between atoms: _35  and  _37
REMARK   16  A    between atoms: _37  and  _38
REMARK   17  A    between atoms: _37  and  _40
REMARK   18  A    between atoms: _40  and  _41
REMARK   19  A    between atoms: _41  and  _42
REMARK   20  A    between atoms: _42  and  _43
REMARK   21  A    between atoms: _52  and  _54
REMARK   22  A    between atoms: _54  and  _55
REMARK   23  A    between atoms: _54  and  _57
REMARK   24  A    between atoms: _57  and  _58
REMARK   25  A    between atoms: _61  and  _63
REMARK   26  A    between atoms: _63  and  _64
REMARK   27  A    between atoms: _63  and  _66
REMARK   28  A    between atoms: _66  and  _67
REMARK   29  A    between atoms: _72  and  _74
REMARK   30  A    between atoms: _74  and  _75
REMARK   31  A    between atoms: _74  and  _77
REMARK   32  A    between atoms: _77  and  _78
REMARK   33  A    between atoms: _81  and  _83
REMARK   34  A    between atoms: _83  and  _84
REMARK   35  A    between atoms: _83  and  _86
REMARK   36  A    between atoms: _86  and  _87
REMARK   37  A    between atoms: _92  and  _94
REMARK   38  A    between atoms: _94  and  _95
REMARK   39  A    between atoms: _94  and  _97
REMARK   40  A    between atoms: _97  and  _98
REMARK   41  A    between atoms: _98  and  _99
REMARK   42  A    between atoms: _99  and  _100
REMARK   43  A    between atoms: _109  and  _111
REMARK   44  A    between atoms: _111  and  _112
REMARK   45  A    between atoms: _111  and  _114
REMARK   46  A    between atoms: _114  and  _115
REMARK   47  A    between atoms: _120  and  _122
REMARK   48  A    between atoms: _122  and  _123
REMARK   49  A    between atoms: _125  and  _127
REMARK   50  A    between atoms: _127  and  _128
REMARK   51  A    between atoms: _127  and  _130
REMARK   52  A    between atoms: _130  and  _131
REMARK   53  A    between atoms: _134  and  _136
REMARK   54  A    between atoms: _136  and  _137
REMARK   55  A    between atoms: _136  and  _139
REMARK   56  A    between atoms: _141  and  _143
REMARK   57  A    between atoms: _143  and  _144
REMARK   58  A    between atoms: _143  and  _146
REMARK   59  A    between atoms: _146  and  _147
REMARK   60  A    between atoms: _147  and  _148
REMARK   61  A    between atoms: _148  and  _149
REMARK   62  A    between atoms: _158  and  _160
REMARK   63  A    between atoms: _160  and  _161
REMARK   64  A    between atoms: _160  and  _163
REMARK   65  A    between atoms: _163  and  _164
REMARK   66  A    between atoms: _164  and  _165
REMARK   67  A    between atoms: _167  and  _169
REMARK   68  A    between atoms: _169  and  _170
REMARK   69  A    between atoms: _169  and  _172
REMARK   70  A    between atoms: _172  and  _173
REMARK   71  A    between atoms: _176  and  _178
REMARK   72  A    between atoms: _178  and  _179
REMARK   73  A    between atoms: _178  and  _181
REMARK   74  A    between atoms: _181  and  _182
REMARK   75  A    between atoms: _185  and  _187
REMARK   76  A    between atoms: _187  and  _188
REMARK   77  A    between atoms: _190  and  _192
REMARK   78  A    between atoms: _192  and  _193
REMARK   79  A    between atoms: _192  and  _195
REMARK   80  A    between atoms: _195  and  _196
REMARK   81  A    between atoms: _196  and  _197
REMARK   82  A    between atoms: _200  and  _202
REMARK   83  A    between atoms: _202  and  _203
REMARK   84  A    between atoms: _202  and  _205
REMARK   85  A    between atoms: _208  and  _210
REMARK   86  A    between atoms: _210  and  _211
REMARK   87  A    between atoms: _210  and  _213
REMARK   88  A    between atoms: _213  and  _214
REMARK   89  A    between atoms: _217  and  _219
REMARK   90  A    between atoms: _219  and  _220
REMARK   91  A    between atoms: _219  and  _222
REMARK   92  A    between atoms: _222  and  _223
REMARK   93  A    between atoms: _226  and  _228
REMARK   94  A    between atoms: _228  and  _229
REMARK   95  A    between atoms: _232  and  _234
REMARK   96  A    between atoms: _234  and  _235
REMARK   97  A    between atoms: _234  and  _237
REMARK   98  A    between atoms: _240  and  _242
REMARK   99  A    between atoms: _242  and  _243
REMARK  100  A    between atoms: _242  and  _245
REMARK  101  A    between atoms: _245  and  _246
REMARK  102  A    between atoms: _246  and  _247
REMARK  103  A    between atoms: _250  and  _252
REMARK  104  A    between atoms: _252  and  _253
REMARK  105  A    between atoms: _256  and  _258
REMARK  106  A    between atoms: _258  and  _259
REMARK  107  A    between atoms: _262  and  _264
REMARK  108  A    between atoms: _264  and  _265
REMARK  109  A    between atoms: _264  and  _267
REMARK  110  A    between atoms: _267  and  _268
REMARK  111  A    between atoms: _270  and  _272
REMARK  112  A    between atoms: _272  and  _273
REMARK  113  A    between atoms: _272  and  _275
REMARK  114  A    between atoms: _275  and  _276
REMARK  115  A    between atoms: _286  and  _288
REMARK  116  A    between atoms: _288  and  _289
REMARK  117  A    between atoms: _292  and  _293
REMARK  118  A    between atoms: _298  and  _300
REMARK  119  A    between atoms: _300  and  _301
REMARK  120  A    between atoms: _300  and  _303
REMARK  121  A    between atoms: _303  and  _304
REMARK  122  A    between atoms: _304  and  _305
REMARK  123  A    between atoms: _308  and  _310
REMARK  124  A    between atoms: _310  and  _311
REMARK  125  A    between atoms: _310  and  _313
REMARK  126  A    between atoms: _313  and  _314
REMARK  127  A    between atoms: _314  and  _315
REMARK  128  A    between atoms: _315  and  CA_629
REMARK  129  A    between atoms: _317  and  _319
REMARK  130  A    between atoms: _319  and  _320
REMARK  131  A    between atoms: _319  and  _322
REMARK  132  A    between atoms: _322  and  _323
REMARK  133  A    between atoms: _326  and  _328
REMARK  134  A    between atoms: _328  and  _329
REMARK  135  A    between atoms: _328  and  _331
REMARK  136  A    between atoms: _331  and  _332
REMARK  137  A    between atoms: _335  and  _337
REMARK  138  A    between atoms: _337  and  _338
REMARK  139  A    between atoms: _337  and  _340
REMARK  140  A    between atoms: _343  and  _345
REMARK  141  A    between atoms: _345  and  _346
REMARK  142  A    between atoms: _345  and  _348
REMARK  143  A    between atoms: _348  and  _349
REMARK  144  A    between atoms: _352  and  _354
REMARK  145  A    between atoms: _354  and  _355
REMARK  146  A    between atoms: _358  and  _359
REMARK  147  A    between atoms: _364  and  _366
REMARK  148  A    between atoms: _366  and  _367
REMARK  149  A    between atoms: _370  and  _372
REMARK  150  A    between atoms: _372  and  _373
REMARK  151  A    between atoms: _372  and  _375
REMARK  152  A    between atoms: _375  and  _376
REMARK  153  A    between atoms: _376  and  _377
REMARK  154  A    between atoms: _377  and  _378
REMARK  155  A    between atoms: _387  and  _389
REMARK  156  A    between atoms: _389  and  _390
REMARK  157  A    between atoms: _389  and  _392
REMARK  158  A    between atoms: _392  and  _393
REMARK  159  A    between atoms: _396  and  _398
REMARK  160  A    between atoms: _398  and  _399
REMARK  161  A    between atoms: _402  and  _404
REMARK  162  A    between atoms: _404  and  _405
REMARK  163  A    between atoms: _404  and  _407
REMARK  164  A    between atoms: _407  and  _408
REMARK  165  A    between atoms: _408  and  _409
REMARK  166  A    between atoms: _412  and  _414
REMARK  167  A    between atoms: _414  and  _415
REMARK  168  A    between atoms: _414  and  _417
REMARK  169  A    between atoms: _417  and  _418
REMARK  170  A    between atoms: _428  and  _430
REMARK  171  A    between atoms: _430  and  _431
REMARK  172  A    between atoms: _434  and  _436
REMARK  173  A    between atoms: _436  and  _437
REMARK  174  A    between atoms: _436  and  _439
REMARK  175  A    between atoms: _439  and  _440
REMARK  176  A    between atoms: _442  and  _444
REMARK  177  A    between atoms: _444  and  _445
REMARK  178  A    between atoms: _447  and  _449
REMARK  179  A    between atoms: _449  and  _450
REMARK  180  A    between atoms: _449  and  _452
REMARK  181  A    between atoms: _452  and  _453
REMARK  182  A    between atoms: _458  and  _460
REMARK  183  A    between atoms: _460  and  _461
REMARK  184  A    between atoms: _463  and  _465
REMARK  185  A    between atoms: _465  and  _466
REMARK  186  A    between atoms: _465  and  _468
REMARK  187  A    between atoms: _468  and  _469
REMARK  188  A    between atoms: _469  and  _471
REMARK  189  A    between atoms: _471  and  CA_629
REMARK  190  A    between atoms: _472  and  _474
REMARK  191  A    between atoms: _474  and  _475
REMARK  192  A    between atoms: _474  and  _477
REMARK  193  A    between atoms: _477  and  _478
REMARK  194  A    between atoms: _480  and  _482
REMARK  195  A    between atoms: _482  and  _483
REMARK  196  A    between atoms: _482  and  _485
REMARK  197  A    between atoms: _487  and  _489
REMARK  198  A    between atoms: _489  and  _490
REMARK  199  A    between atoms: _489  and  _492
REMARK  200  A    between atoms: _494  and  _496
REMARK  201  A    between atoms: _496  and  _497
REMARK  202  A    between atoms: _496  and  _499
REMARK  203  A    between atoms: _499  and  _500
REMARK  204  A    between atoms: _503  and  _505
REMARK  205  A    between atoms: _505  and  _506
REMARK  206  A    between atoms: _508  and  _510
REMARK  207  A    between atoms: _510  and  _511
REMARK  208  A    between atoms: _510  and  _513
REMARK  209  A    between atoms: _513  and  _514
REMARK  210  A    between atoms: _519  and  _520
REMARK  211  A    between atoms: _522  and  _524
REMARK  212  A    between atoms: _524  and  _525
REMARK  213  A    between atoms: _524  and  _527
REMARK  214  A    between atoms: _527  and  _528
REMARK  215  A    between atoms: _531  and  _533
REMARK  216  A    between atoms: _533  and  _534
REMARK  217  A    between atoms: _533  and  _536
REMARK  218  A    between atoms: _536  and  _537
REMARK  219  A    between atoms: _542  and  _544
REMARK  220  A    between atoms: _544  and  _545
REMARK  221  A    between atoms: _544  and  _547
REMARK  222  A    between atoms: _547  and  _548
REMARK  223  A    between atoms: _551  and  _553
REMARK  224  A    between atoms: _553  and  _554
REMARK  225  A    between atoms: _553  and  _556
REMARK  226  A    between atoms: _556  and  _557
REMARK  227  A    between atoms: _559  and  _561
REMARK  228  A    between atoms: _561  and  _562
REMARK  229  A    between atoms: _561  and  _564
REMARK  230  A    between atoms: _564  and  _565
REMARK  231  A    between atoms: _568  and  _570
REMARK  232  A    between atoms: _570  and  _571
REMARK  233  A    between atoms: _570  and  _573
REMARK  234  A    between atoms: _573  and  _574
REMARK  235  A    between atoms: _574  and  _575
REMARK  236  A    between atoms: _578  and  _580
REMARK  237  A    between atoms: _580  and  _581
REMARK  238  A    between atoms: _580  and  _583
REMARK  239  A    between atoms: _583  and  _584
REMARK  240  A    between atoms: _587  and  _589
REMARK  241  A    between atoms: _589  and  _590
REMARK  242  A    between atoms: _592  and  _594
REMARK  243  A    between atoms: _594  and  _595
REMARK  244  A    between atoms: _594  and  _597
REMARK  245  A    between atoms: _597  and  _598
REMARK  246  A    between atoms: _601  and  _603
REMARK  247  A    between atoms: _603  and  _604
REMARK  248  A    between atoms: _603  and  _606
REMARK  249  A    between atoms: _606  and  _607
REMARK  250  A    between atoms: _609  and  _611
REMARK  251  A    between atoms: _611  and  _612
REMARK  252  A    between atoms: _615  and  _617
REMARK  253  A    between atoms: _617  and  _618
REMARK  254  A    between atoms: _617  and  _620
REMARK  255  A    between atoms: _620  and  _621
REMARK  256  A    between atoms: _623  and  _625
REMARK  257  A    between atoms: _625  and  _626
REMARK                            x       y       z     vdW  Elec       q    Type
REMARK                         _______ _______ _______ _____ _____    ______ ____
ROOT
ATOM      1  O   HOH     1      21.599  30.420  -9.809  0.00  0.00    +0.000 OA
ENDROOT
TORSDOF 0
REMARK  Name = ../refined-set-2016/4omc/4omc_pocket.pdb
REMARK  257 active torsions:
REMARK  status: ('A' for Active; 'I' for Inactive)
REMARK    1  A    between atoms: _1  and  _3
REMARK    2  A    between atoms: _3  and  _4
REMARK    3  A    between atoms: _3  and  _6
REMARK    4  A    between atoms: _6  and  _7
REMARK    5  A    between atoms: _10  and  _12
REMARK    6  A    between atoms: _12  and  _13
REMARK    7  A    between atoms: _12  and  _15
REMARK    8  A    between atoms: _15  and  _16
REMARK    9  A    between atoms: _19  and  _21
REMARK   10  A    between atoms: _21  and  _22
REMARK   11  A    between atoms: _24  and  _26
REMARK   12  A    between atoms: _26  and  _27
REMARK   13  A    between atoms: _26  and  _29
REMARK   14  A    between atoms: _29  and  _30
REMARK   15  A    between atoms: _35  and  _37
REMARK   16  A    between atoms: _37  and  _38
REMARK   17  A    between atoms: _37  and  _40
REMARK   18  A    between atoms: _40  and  _41
REMARK   19  A    between atoms: _41  and  _42
REMARK   20  A    between atoms: _42  and  _43
REMARK   21  A    between atoms: _52  and  _54
REMARK   22  A    between atoms: _54  and  _55
REMARK   23  A    between atoms: _54  and  _57
REMARK   24  A    between atoms: _57  and  _58
REMARK   25  A    between atoms: _61  and  _63
REMARK   26  A    between atoms: _63  and  _64
REMARK   27  A    between atoms: _63  and  _66
REMARK   28  A    between atoms: _66  and  _67
REMARK   29  A    between atoms: _72  and  _74
REMARK   30  A    between atoms: _74  and  _75
REMARK   31  A    between atoms: _74  and  _77
REMARK   32  A    between atoms: _77  and  _78
REMARK   33  A    between atoms: _81  and  _83
REMARK   34  A    between atoms: _83  and  _84
REMARK   35  A    between atoms: _83  and  _86
REMARK   36  A    between atoms: _86  and  _87
REMARK   37  A    between atoms: _92  and  _94
REMARK   38  A    between atoms: _94  and  _95
REMARK   39  A    between atoms: _94  and  _97
REMARK   40  A    between atoms: _97  and  _98
REMARK   41  A    between atoms: _98  and  _99
REMARK   42  A    between atoms: _99  and  _100
REMARK   43  A    between atoms: _109  and  _111
REMARK   44  A    between atoms: _111  and  _112
REMARK   45  A    between atoms: _111  and  _114
REMARK   46  A    between atoms: _114  and  _115
REMARK   47  A    between atoms: _120  and  _122
REMARK   48  A    between atoms: _122  and  _123
REMARK   49  A    between atoms: _125  and  _127
REMARK   50  A    between atoms: _127  and  _128
REMARK   51  A    between atoms: _127  and  _130
REMARK   52  A    between atoms: _130  and  _131
REMARK   53  A    between atoms: _134  and  _136
REMARK   54  A    between atoms: _136  and  _137
REMARK   55  A    between atoms: _136  and  _139
REMARK   56  A    between atoms: _141  and  _143
REMARK   57  A    between atoms: _143  and  _144
REMARK   58  A    between atoms: _143  and  _146
REMARK   59  A    between atoms: _146  and  _147
REMARK   60  A    between atoms: _147  and  _148
REMARK   61  A    between atoms: _148  and  _149
REMARK   62  A    between atoms: _158  and  _160
REMARK   63  A    between atoms: _160  and  _161
REMARK   64  A    between atoms: _160  and  _163
REMARK   65  A    between atoms: _163  and  _164
REMARK   66  A    between atoms: _164  and  _165
REMARK   67  A    between atoms: _167  and  _169
REMARK   68  A    between atoms: _169  and  _170
REMARK   69  A    between atoms: _169  and  _172
REMARK   70  A    between atoms: _172  and  _173
REMARK   71  A    between atoms: _176  and  _178
REMARK   72  A    between atoms: _178  and  _179
REMARK   73  A    between atoms: _178  and  _181
REMARK   74  A    between atoms: _181  and  _182
REMARK   75  A    between atoms: _185  and  _187
REMARK   76  A    between atoms: _187  and  _188
REMARK   77  A    between atoms: _190  and  _192
REMARK   78  A    between atoms: _192  and  _193
REMARK   79  A    between atoms: _192  and  _195
REMARK   80  A    between atoms: _195  and  _196
REMARK   81  A    between atoms: _196  and  _197
REMARK   82  A    between atoms: _200  and  _202
REMARK   83  A    between atoms: _202  and  _203
REMARK   84  A    between atoms: _202  and  _205
REMARK   85  A    between atoms: _208  and  _210
REMARK   86  A    between atoms: _210  and  _211
REMARK   87  A    between atoms: _210  and  _213
REMARK   88  A    between atoms: _213  and  _214
REMARK   89  A    between atoms: _217  and  _219
REMARK   90  A    between atoms: _219  and  _220
REMARK   91  A    between atoms: _219  and  _222
REMARK   92  A    between atoms: _222  and  _223
REMARK   93  A    between atoms: _226  and  _228
REMARK   94  A    between atoms: _228  and  _229
REMARK   95  A    between atoms: _232  and  _234
REMARK   96  A    between atoms: _234  and  _235
REMARK   97  A    between atoms: _234  and  _237
REMARK   98  A    between atoms: _240  and  _242
REMARK   99  A    between atoms: _242  and  _243
REMARK  100  A    between atoms: _242  and  _245
REMARK  101  A    between atoms: _245  and  _246
REMARK  102  A    between atoms: _246  and  _247
REMARK  103  A    between atoms: _250  and  _252
REMARK  104  A    between atoms: _252  and  _253
REMARK  105  A    between atoms: _256  and  _258
REMARK  106  A    between atoms: _258  and  _259
REMARK  107  A    between atoms: _262  and  _264
REMARK  108  A    between atoms: _264  and  _265
REMARK  109  A    between atoms: _264  and  _267
REMARK  110  A    between atoms: _267  and  _268
REMARK  111  A    between atoms: _270  and  _272
REMARK  112  A    between atoms: _272  and  _273
REMARK  113  A    between atoms: _272  and  _275
REMARK  114  A    between atoms: _275  and  _276
REMARK  115  A    between atoms: _286  and  _288
REMARK  116  A    between atoms: _288  and  _289
REMARK  117  A    between atoms: _292  and  _293
REMARK  118  A    between atoms: _298  and  _300
REMARK  119  A    between atoms: _300  and  _301
REMARK  120  A    between atoms: _300  and  _303
REMARK  121  A    between atoms: _303  and  _304
REMARK  122  A    between atoms: _304  and  _305
REMARK  123  A    between atoms: _308  and  _310
REMARK  124  A    between atoms: _310  and  _311
REMARK  125  A    between atoms: _310  and  _313
REMARK  126  A    between atoms: _313  and  _314
REMARK  127  A    between atoms: _314  and  _315
REMARK  128  A    between atoms: _315  and  CA_629
REMARK  129  A    between atoms: _317  and  _319
REMARK  130  A    between atoms: _319  and  _320
REMARK  131  A    between atoms: _319  and  _322
REMARK  132  A    between atoms: _322  and  _323
REMARK  133  A    between atoms: _326  and  _328
REMARK  134  A    between atoms: _328  and  _329
REMARK  135  A    between atoms: _328  and  _331
REMARK  136  A    between atoms: _331  and  _332
REMARK  137  A    between atoms: _335  and  _337
REMARK  138  A    between atoms: _337  and  _338
REMARK  139  A    between atoms: _337  and  _340
REMARK  140  A    between atoms: _343  and  _345
REMARK  141  A    between atoms: _345  and  _346
REMARK  142  A    between atoms: _345  and  _348
REMARK  143  A    between atoms: _348  and  _349
REMARK  144  A    between atoms: _352  and  _354
REMARK  145  A    between atoms: _354  and  _355
REMARK  146  A    between atoms: _358  and  _359
REMARK  147  A    between atoms: _364  and  _366
REMARK  148  A    between atoms: _366  and  _367
REMARK  149  A    between atoms: _370  and  _372
REMARK  150  A    between atoms: _372  and  _373
REMARK  151  A    between atoms: _372  and  _375
REMARK  152  A    between atoms: _375  and  _376
REMARK  153  A    between atoms: _376  and  _377
REMARK  154  A    between atoms: _377  and  _378
REMARK  155  A    between atoms: _387  and  _389
REMARK  156  A    between atoms: _389  and  _390
REMARK  157  A    between atoms: _389  and  _392
REMARK  158  A    between atoms: _392  and  _393
REMARK  159  A    between atoms: _396  and  _398
REMARK  160  A    between atoms: _398  and  _399
REMARK  161  A    between atoms: _402  and  _404
REMARK  162  A    between atoms: _404  and  _405
REMARK  163  A    between atoms: _404  and  _407
REMARK  164  A    between atoms: _407  and  _408
REMARK  165  A    between atoms: _408  and  _409
REMARK  166  A    between atoms: _412  and  _414
REMARK  167  A    between atoms: _414  and  _415
REMARK  168  A    between atoms: _414  and  _417
REMARK  169  A    between atoms: _417  and  _418
REMARK  170  A    between atoms: _428  and  _430
REMARK  171  A    between atoms: _430  and  _431
REMARK  172  A    between atoms: _434  and  _436
REMARK  173  A    between atoms: _436  and  _437
REMARK  174  A    between atoms: _436  and  _439
REMARK  175  A    between atoms: _439  and  _440
REMARK  176  A    between atoms: _442  and  _444
REMARK  177  A    between atoms: _444  and  _445
REMARK  178  A    between atoms: _447  and  _449
REMARK  179  A    between atoms: _449  and  _450
REMARK  180  A    between atoms: _449  and  _452
REMARK  181  A    between atoms: _452  and  _453
REMARK  182  A    between atoms: _458  and  _460
REMARK  183  A    between atoms: _460  and  _461
REMARK  184  A    between atoms: _463  and  _465
REMARK  185  A    between atoms: _465  and  _466
REMARK  186  A    between atoms: _465  and  _468
REMARK  187  A    between atoms: _468  and  _469
REMARK  188  A    between atoms: _469  and  _471
REMARK  189  A    between atoms: _471  and  CA_629
REMARK  190  A    between atoms: _472  and  _474
REMARK  191  A    between atoms: _474  and  _475
REMARK  192  A    between atoms: _474  and  _477
REMARK  193  A    between atoms: _477  and  _478
REMARK  194  A    between atoms: _480  and  _482
REMARK  195  A    between atoms: _482  and  _483
REMARK  196  A    between atoms: _482  and  _485
REMARK  197  A    between atoms: _487  and  _489
REMARK  198  A    between atoms: _489  and  _490
REMARK  199  A    between atoms: _489  and  _492
REMARK  200  A    between atoms: _494  and  _496
REMARK  201  A    between atoms: _496  and  _497
REMARK  202  A    between atoms: _496  and  _499
REMARK  203  A    between atoms: _499  and  _500
REMARK  204  A    between atoms: _503  and  _505
REMARK  205  A    between atoms: _505  and  _506
REMARK  206  A    between atoms: _508  and  _510
REMARK  207  A    between atoms: _510  and  _511
REMARK  208  A    between atoms: _510  and  _513
REMARK  209  A    between atoms: _513  and  _514
REMARK  210  A    between atoms: _519  and  _520
REMARK  211  A    between atoms: _522  and  _524
REMARK  212  A    between atoms: _524  and  _525
REMARK  213  A    between atoms: _524  and  _527
REMARK  214  A    between atoms: _527  and  _528
REMARK  215  A    between atoms: _531  and  _533
REMARK  216  A    between atoms: _533  and  _534
REMARK  217  A    between atoms: _533  and  _536
REMARK  218  A    between atoms: _536  and  _537
REMARK  219  A    between atoms: _542  and  _544
REMARK  220  A    between atoms: _544  and  _545
REMARK  221  A    between atoms: _544  and  _547
REMARK  222  A    between atoms: _547  and  _548
REMARK  223  A    between atoms: _551  and  _553
REMARK  224  A    between atoms: _553  and  _554
REMARK  225  A    between atoms: _553  and  _556
REMARK  226  A    between atoms: _556  and  _557
REMARK  227  A    between atoms: _559  and  _561
REMARK  228  A    between atoms: _561  and  _562
REMARK  229  A    between atoms: _561  and  _564
REMARK  230  A    between atoms: _564  and  _565
REMARK  231  A    between atoms: _568  and  _570
REMARK  232  A    between atoms: _570  and  _571
REMARK  233  A    between atoms: _570  and  _573
REMARK  234  A    between atoms: _573  and  _574
REMARK  235  A    between atoms: _574  and  _575
REMARK  236  A    between atoms: _578  and  _580
REMARK  237  A    between atoms: _580  and  _581
REMARK  238  A    between atoms: _580  and  _583
REMARK  239  A    between atoms: _583  and  _584
REMARK  240  A    between atoms: _587  and  _589
REMARK  241  A    between atoms: _589  and  _590
REMARK  242  A    between atoms: _592  and  _594
REMARK  243  A    between atoms: _594  and  _595
REMARK  244  A    between atoms: _594  and  _597
REMARK  245  A    between atoms: _597  and  _598
REMARK  246  A    between atoms: _601  and  _603
REMARK  247  A    between atoms: _603  and  _604
REMARK  248  A    between atoms: _603  and  _606
REMARK  249  A    between atoms: _606  and  _607
REMARK  250  A    between atoms: _609  and  _611
REMARK  251  A    between atoms: _611  and  _612
REMARK  252  A    between atoms: _615  and  _617
REMARK  253  A    between atoms: _617  and  _618
REMARK  254  A    between atoms: _617  and  _620
REMARK  255  A    between atoms: _620  and  _621
REMARK  256  A    between atoms: _623  and  _625
REMARK  257  A    between atoms: _625  and  _626
REMARK                            x       y       z     vdW  Elec       q    Type
REMARK                         _______ _______ _______ _____ _____    ______ ____
ROOT
ATOM      1  O   HOH     1      23.868  29.614 -11.211  0.00  0.00    +0.000 OA
ENDROOT
TORSDOF 0
REMARK  Name = ../refined-set-2016/4omc/4omc_pocket.pdb
REMARK  257 active torsions:
REMARK  status: ('A' for Active; 'I' for Inactive)
REMARK    1  A    between atoms: _1  and  _3
REMARK    2  A    between atoms: _3  and  _4
REMARK    3  A    between atoms: _3  and  _6
REMARK    4  A    between atoms: _6  and  _7
REMARK    5  A    between atoms: _10  and  _12
REMARK    6  A    between atoms: _12  and  _13
REMARK    7  A    between atoms: _12  and  _15
REMARK    8  A    between atoms: _15  and  _16
REMARK    9  A    between atoms: _19  and  _21
REMARK   10  A    between atoms: _21  and  _22
REMARK   11  A    between atoms: _24  and  _26
REMARK   12  A    between atoms: _26  and  _27
REMARK   13  A    between atoms: _26  and  _29
REMARK   14  A    between atoms: _29  and  _30
REMARK   15  A    between atoms: _35  and  _37
REMARK   16  A    between atoms: _37  and  _38
REMARK   17  A    between atoms: _37  and  _40
REMARK   18  A    between atoms: _40  and  _41
REMARK   19  A    between atoms: _41  and  _42
REMARK   20  A    between atoms: _42  and  _43
REMARK   21  A    between atoms: _52  and  _54
REMARK   22  A    between atoms: _54  and  _55
REMARK   23  A    between atoms: _54  and  _57
REMARK   24  A    between atoms: _57  and  _58
REMARK   25  A    between atoms: _61  and  _63
REMARK   26  A    between atoms: _63  and  _64
REMARK   27  A    between atoms: _63  and  _66
REMARK   28  A    between atoms: _66  and  _67
REMARK   29  A    between atoms: _72  and  _74
REMARK   30  A    between atoms: _74  and  _75
REMARK   31  A    between atoms: _74  and  _77
REMARK   32  A    between atoms: _77  and  _78
REMARK   33  A    between atoms: _81  and  _83
REMARK   34  A    between atoms: _83  and  _84
REMARK   35  A    between atoms: _83  and  _86
REMARK   36  A    between atoms: _86  and  _87
REMARK   37  A    between atoms: _92  and  _94
REMARK   38  A    between atoms: _94  and  _95
REMARK   39  A    between atoms: _94  and  _97
REMARK   40  A    between atoms: _97  and  _98
REMARK   41  A    between atoms: _98  and  _99
REMARK   42  A    between atoms: _99  and  _100
REMARK   43  A    between atoms: _109  and  _111
REMARK   44  A    between atoms: _111  and  _112
REMARK   45  A    between atoms: _111  and  _114
REMARK   46  A    between atoms: _114  and  _115
REMARK   47  A    between atoms: _120  and  _122
REMARK   48  A    between atoms: _122  and  _123
REMARK   49  A    between atoms: _125  and  _127
REMARK   50  A    between atoms: _127  and  _128
REMARK   51  A    between atoms: _127  and  _130
REMARK   52  A    between atoms: _130  and  _131
REMARK   53  A    between atoms: _134  and  _136
REMARK   54  A    between atoms: _136  and  _137
REMARK   55  A    between atoms: _136  and  _139
REMARK   56  A    between atoms: _141  and  _143
REMARK   57  A    between atoms: _143  and  _144
REMARK   58  A    between atoms: _143  and  _146
REMARK   59  A    between atoms: _146  and  _147
REMARK   60  A    between atoms: _147  and  _148
REMARK   61  A    between atoms: _148  and  _149
REMARK   62  A    between atoms: _158  and  _160
REMARK   63  A    between atoms: _160  and  _161
REMARK   64  A    between atoms: _160  and  _163
REMARK   65  A    between atoms: _163  and  _164
REMARK   66  A    between atoms: _164  and  _165
REMARK   67  A    between atoms: _167  and  _169
REMARK   68  A    between atoms: _169  and  _170
REMARK   69  A    between atoms: _169  and  _172
REMARK   70  A    between atoms: _172  and  _173
REMARK   71  A    between atoms: _176  and  _178
REMARK   72  A    between atoms: _178  and  _179
REMARK   73  A    between atoms: _178  and  _181
REMARK   74  A    between atoms: _181  and  _182
REMARK   75  A    between atoms: _185  and  _187
REMARK   76  A    between atoms: _187  and  _188
REMARK   77  A    between atoms: _190  and  _192
REMARK   78  A    between atoms: _192  and  _193
REMARK   79  A    between atoms: _192  and  _195
REMARK   80  A    between atoms: _195  and  _196
REMARK   81  A    between atoms: _196  and  _197
REMARK   82  A    between atoms: _200  and  _202
REMARK   83  A    between atoms: _202  and  _203
REMARK   84  A    between atoms: _202  and  _205
REMARK   85  A    between atoms: _208  and  _210
REMARK   86  A    between atoms: _210  and  _211
REMARK   87  A    between atoms: _210  and  _213
REMARK   88  A    between atoms: _213  and  _214
REMARK   89  A    between atoms: _217  and  _219
REMARK   90  A    between atoms: _219  and  _220
REMARK   91  A    between atoms: _219  and  _222
REMARK   92  A    between atoms: _222  and  _223
REMARK   93  A    between atoms: _226  and  _228
REMARK   94  A    between atoms: _228  and  _229
REMARK   95  A    between atoms: _232  and  _234
REMARK   96  A    between atoms: _234  and  _235
REMARK   97  A    between atoms: _234  and  _237
REMARK   98  A    between atoms: _240  and  _242
REMARK   99  A    between atoms: _242  and  _243
REMARK  100  A    between atoms: _242  and  _245
REMARK  101  A    between atoms: _245  and  _246
REMARK  102  A    between atoms: _246  and  _247
REMARK  103  A    between atoms: _250  and  _252
REMARK  104  A    between atoms: _252  and  _253
REMARK  105  A    between atoms: _256  and  _258
REMARK  106  A    between atoms: _258  and  _259
REMARK  107  A    between atoms: _262  and  _264
REMARK  108  A    between atoms: _264  and  _265
REMARK  109  A    between atoms: _264  and  _267
REMARK  110  A    between atoms: _267  and  _268
REMARK  111  A    between atoms: _270  and  _272
REMARK  112  A    between atoms: _272  and  _273
REMARK  113  A    between atoms: _272  and  _275
REMARK  114  A    between atoms: _275  and  _276
REMARK  115  A    between atoms: _286  and  _288
REMARK  116  A    between atoms: _288  and  _289
REMARK  117  A    between atoms: _292  and  _293
REMARK  118  A    between atoms: _298  and  _300
REMARK  119  A    between atoms: _300  and  _301
REMARK  120  A    between atoms: _300  and  _303
REMARK  121  A    between atoms: _303  and  _304
REMARK  122  A    between atoms: _304  and  _305
REMARK  123  A    between atoms: _308  and  _310
REMARK  124  A    between atoms: _310  and  _311
REMARK  125  A    between atoms: _310  and  _313
REMARK  126  A    between atoms: _313  and  _314
REMARK  127  A    between atoms: _314  and  _315
REMARK  128  A    between atoms: _315  and  CA_629
REMARK  129  A    between atoms: _317  and  _319
REMARK  130  A    between atoms: _319  and  _320
REMARK  131  A    between atoms: _319  and  _322
REMARK  132  A    between atoms: _322  and  _323
REMARK  133  A    between atoms: _326  and  _328
REMARK  134  A    between atoms: _328  and  _329
REMARK  135  A    between atoms: _328  and  _331
REMARK  136  A    between atoms: _331  and  _332
REMARK  137  A    between atoms: _335  and  _337
REMARK  138  A    between atoms: _337  and  _338
REMARK  139  A    between atoms: _337  and  _340
REMARK  140  A    between atoms: _343  and  _345
REMARK  141  A    between atoms: _345  and  _346
REMARK  142  A    between atoms: _345  and  _348
REMARK  143  A    between atoms: _348  and  _349
REMARK  144  A    between atoms: _352  and  _354
REMARK  145  A    between atoms: _354  and  _355
REMARK  146  A    between atoms: _358  and  _359
REMARK  147  A    between atoms: _364  and  _366
REMARK  148  A    between atoms: _366  and  _367
REMARK  149  A    between atoms: _370  and  _372
REMARK  150  A    between atoms: _372  and  _373
REMARK  151  A    between atoms: _372  and  _375
REMARK  152  A    between atoms: _375  and  _376
REMARK  153  A    between atoms: _376  and  _377
REMARK  154  A    between atoms: _377  and  _378
REMARK  155  A    between atoms: _387  and  _389
REMARK  156  A    between atoms: _389  and  _390
REMARK  157  A    between atoms: _389  and  _392
REMARK  158  A    between atoms: _392  and  _393
REMARK  159  A    between atoms: _396  and  _398
REMARK  160  A    between atoms: _398  and  _399
REMARK  161  A    between atoms: _402  and  _404
REMARK  162  A    between atoms: _404  and  _405
REMARK  163  A    between atoms: _404  and  _407
REMARK  164  A    between atoms: _407  and  _408
REMARK  165  A    between atoms: _408  and  _409
REMARK  166  A    between atoms: _412  and  _414
REMARK  167  A    between atoms: _414  and  _415
REMARK  168  A    between atoms: _414  and  _417
REMARK  169  A    between atoms: _417  and  _418
REMARK  170  A    between atoms: _428  and  _430
REMARK  171  A    between atoms: _430  and  _431
REMARK  172  A    between atoms: _434  and  _436
REMARK  173  A    between atoms: _436  and  _437
REMARK  174  A    between atoms: _436  and  _439
REMARK  175  A    between atoms: _439  and  _440
REMARK  176  A    between atoms: _442  and  _444
REMARK  177  A    between atoms: _444  and  _445
REMARK  178  A    between atoms: _447  and  _449
REMARK  179  A    between atoms: _449  and  _450
REMARK  180  A    between atoms: _449  and  _452
REMARK  181  A    between atoms: _452  and  _453
REMARK  182  A    between atoms: _458  and  _460
REMARK  183  A    between atoms: _460  and  _461
REMARK  184  A    between atoms: _463  and  _465
REMARK  185  A    between atoms: _465  and  _466
REMARK  186  A    between atoms: _465  and  _468
REMARK  187  A    between atoms: _468  and  _469
REMARK  188  A    between atoms: _469  and  _471
REMARK  189  A    between atoms: _471  and  CA_629
REMARK  190  A    between atoms: _472  and  _474
REMARK  191  A    between atoms: _474  and  _475
REMARK  192  A    between atoms: _474  and  _477
REMARK  193  A    between atoms: _477  and  _478
REMARK  194  A    between atoms: _480  and  _482
REMARK  195  A    between atoms: _482  and  _483
REMARK  196  A    between atoms: _482  and  _485
REMARK  197  A    between atoms: _487  and  _489
REMARK  198  A    between atoms: _489  and  _490
REMARK  199  A    between atoms: _489  and  _492
REMARK  200  A    between atoms: _494  and  _496
REMARK  201  A    between atoms: _496  and  _497
REMARK  202  A    between atoms: _496  and  _499
REMARK  203  A    between atoms: _499  and  _500
REMARK  204  A    between atoms: _503  and  _505
REMARK  205  A    between atoms: _505  and  _506
REMARK  206  A    between atoms: _508  and  _510
REMARK  207  A    between atoms: _510  and  _511
REMARK  208  A    between atoms: _510  and  _513
REMARK  209  A    between atoms: _513  and  _514
REMARK  210  A    between atoms: _519  and  _520
REMARK  211  A    between atoms: _522  and  _524
REMARK  212  A    between atoms: _524  and  _525
REMARK  213  A    between atoms: _524  and  _527
REMARK  214  A    between atoms: _527  and  _528
REMARK  215  A    between atoms: _531  and  _533
REMARK  216  A    between atoms: _533  and  _534
REMARK  217  A    between atoms: _533  and  _536
REMARK  218  A    between atoms: _536  and  _537
REMARK  219  A    between atoms: _542  and  _544
REMARK  220  A    between atoms: _544  and  _545
REMARK  221  A    between atoms: _544  and  _547
REMARK  222  A    between atoms: _547  and  _548
REMARK  223  A    between atoms: _551  and  _553
REMARK  224  A    between atoms: _553  and  _554
REMARK  225  A    between atoms: _553  and  _556
REMARK  226  A    between atoms: _556  and  _557
REMARK  227  A    between atoms: _559  and  _561
REMARK  228  A    between atoms: _561  and  _562
REMARK  229  A    between atoms: _561  and  _564
REMARK  230  A    between atoms: _564  and  _565
REMARK  231  A    between atoms: _568  and  _570
REMARK  232  A    between atoms: _570  and  _571
REMARK  233  A    between atoms: _570  and  _573
REMARK  234  A    between atoms: _573  and  _574
REMARK  235  A    between atoms: _574  and  _575
REMARK  236  A    between atoms: _578  and  _580
REMARK  237  A    between atoms: _580  and  _581
REMARK  238  A    between atoms: _580  and  _583
REMARK  239  A    between atoms: _583  and  _584
REMARK  240  A    between atoms: _587  and  _589
REMARK  241  A    between atoms: _589  and  _590
REMARK  242  A    between atoms: _592  and  _594
REMARK  243  A    between atoms: _594  and  _595
REMARK  244  A    between atoms: _594  and  _597
REMARK  245  A    between atoms: _597  and  _598
REMARK  246  A    between atoms: _601  and  _603
REMARK  247  A    between atoms: _603  and  _604
REMARK  248  A    between atoms: _603  and  _606
REMARK  249  A    between atoms: _606  and  _607
REMARK  250  A    between atoms: _609  and  _611
REMARK  251  A    between atoms: _611  and  _612
REMARK  252  A    between atoms: _615  and  _617
REMARK  253  A    between atoms: _617  and  _618
REMARK  254  A    between atoms: _617  and  _620
REMARK  255  A    between atoms: _620  and  _621
REMARK  256  A    between atoms: _623  and  _625
REMARK  257  A    between atoms: _625  and  _626
REMARK                            x       y       z     vdW  Elec       q    Type
REMARK                         _______ _______ _______ _____ _____    ______ ____
ROOT
ATOM      1  O   HOH     1      39.514  17.778  -1.107  0.00  0.00    +0.000 OA
ENDROOT
TORSDOF 0
REMARK  Name = ../refined-set-2016/4omc/4omc_pocket.pdb
REMARK  257 active torsions:
REMARK  status: ('A' for Active; 'I' for Inactive)
REMARK    1  A    between atoms: _1  and  _3
REMARK    2  A    between atoms: _3  and  _4
REMARK    3  A    between atoms: _3  and  _6
REMARK    4  A    between atoms: _6  and  _7
REMARK    5  A    between atoms: _10  and  _12
REMARK    6  A    between atoms: _12  and  _13
REMARK    7  A    between atoms: _12  and  _15
REMARK    8  A    between atoms: _15  and  _16
REMARK    9  A    between atoms: _19  and  _21
REMARK   10  A    between atoms: _21  and  _22
REMARK   11  A    between atoms: _24  and  _26
REMARK   12  A    between atoms: _26  and  _27
REMARK   13  A    between atoms: _26  and  _29
REMARK   14  A    between atoms: _29  and  _30
REMARK   15  A    between atoms: _35  and  _37
REMARK   16  A    between atoms: _37  and  _38
REMARK   17  A    between atoms: _37  and  _40
REMARK   18  A    between atoms: _40  and  _41
REMARK   19  A    between atoms: _41  and  _42
REMARK   20  A    between atoms: _42  and  _43
REMARK   21  A    between atoms: _52  and  _54
REMARK   22  A    between atoms: _54  and  _55
REMARK   23  A    between atoms: _54  and  _57
REMARK   24  A    between atoms: _57  and  _58
REMARK   25  A    between atoms: _61  and  _63
REMARK   26  A    between atoms: _63  and  _64
REMARK   27  A    between atoms: _63  and  _66
REMARK   28  A    between atoms: _66  and  _67
REMARK   29  A    between atoms: _72  and  _74
REMARK   30  A    between atoms: _74  and  _75
REMARK   31  A    between atoms: _74  and  _77
REMARK   32  A    between atoms: _77  and  _78
REMARK   33  A    between atoms: _81  and  _83
REMARK   34  A    between atoms: _83  and  _84
REMARK   35  A    between atoms: _83  and  _86
REMARK   36  A    between atoms: _86  and  _87
REMARK   37  A    between atoms: _92  and  _94
REMARK   38  A    between atoms: _94  and  _95
REMARK   39  A    between atoms: _94  and  _97
REMARK   40  A    between atoms: _97  and  _98
REMARK   41  A    between atoms: _98  and  _99
REMARK   42  A    between atoms: _99  and  _100
REMARK   43  A    between atoms: _109  and  _111
REMARK   44  A    between atoms: _111  and  _112
REMARK   45  A    between atoms: _111  and  _114
REMARK   46  A    between atoms: _114  and  _115
REMARK   47  A    between atoms: _120  and  _122
REMARK   48  A    between atoms: _122  and  _123
REMARK   49  A    between atoms: _125  and  _127
REMARK   50  A    between atoms: _127  and  _128
REMARK   51  A    between atoms: _127  and  _130
REMARK   52  A    between atoms: _130  and  _131
REMARK   53  A    between atoms: _134  and  _136
REMARK   54  A    between atoms: _136  and  _137
REMARK   55  A    between atoms: _136  and  _139
REMARK   56  A    between atoms: _141  and  _143
REMARK   57  A    between atoms: _143  and  _144
REMARK   58  A    between atoms: _143  and  _146
REMARK   59  A    between atoms: _146  and  _147
REMARK   60  A    between atoms: _147  and  _148
REMARK   61  A    between atoms: _148  and  _149
REMARK   62  A    between atoms: _158  and  _160
REMARK   63  A    between atoms: _160  and  _161
REMARK   64  A    between atoms: _160  and  _163
REMARK   65  A    between atoms: _163  and  _164
REMARK   66  A    between atoms: _164  and  _165
REMARK   67  A    between atoms: _167  and  _169
REMARK   68  A    between atoms: _169  and  _170
REMARK   69  A    between atoms: _169  and  _172
REMARK   70  A    between atoms: _172  and  _173
REMARK   71  A    between atoms: _176  and  _178
REMARK   72  A    between atoms: _178  and  _179
REMARK   73  A    between atoms: _178  and  _181
REMARK   74  A    between atoms: _181  and  _182
REMARK   75  A    between atoms: _185  and  _187
REMARK   76  A    between atoms: _187  and  _188
REMARK   77  A    between atoms: _190  and  _192
REMARK   78  A    between atoms: _192  and  _193
REMARK   79  A    between atoms: _192  and  _195
REMARK   80  A    between atoms: _195  and  _196
REMARK   81  A    between atoms: _196  and  _197
REMARK   82  A    between atoms: _200  and  _202
REMARK   83  A    between atoms: _202  and  _203
REMARK   84  A    between atoms: _202  and  _205
REMARK   85  A    between atoms: _208  and  _210
REMARK   86  A    between atoms: _210  and  _211
REMARK   87  A    between atoms: _210  and  _213
REMARK   88  A    between atoms: _213  and  _214
REMARK   89  A    between atoms: _217  and  _219
REMARK   90  A    between atoms: _219  and  _220
REMARK   91  A    between atoms: _219  and  _222
REMARK   92  A    between atoms: _222  and  _223
REMARK   93  A    between atoms: _226  and  _228
REMARK   94  A    between atoms: _228  and  _229
REMARK   95  A    between atoms: _232  and  _234
REMARK   96  A    between atoms: _234  and  _235
REMARK   97  A    between atoms: _234  and  _237
REMARK   98  A    between atoms: _240  and  _242
REMARK   99  A    between atoms: _242  and  _243
REMARK  100  A    between atoms: _242  and  _245
REMARK  101  A    between atoms: _245  and  _246
REMARK  102  A    between atoms: _246  and  _247
REMARK  103  A    between atoms: _250  and  _252
REMARK  104  A    between atoms: _252  and  _253
REMARK  105  A    between atoms: _256  and  _258
REMARK  106  A    between atoms: _258  and  _259
REMARK  107  A    between atoms: _262  and  _264
REMARK  108  A    between atoms: _264  and  _265
REMARK  109  A    between atoms: _264  and  _267
REMARK  110  A    between atoms: _267  and  _268
REMARK  111  A    between atoms: _270  and  _272
REMARK  112  A    between atoms: _272  and  _273
REMARK  113  A    between atoms: _272  and  _275
REMARK  114  A    between atoms: _275  and  _276
REMARK  115  A    between atoms: _286  and  _288
REMARK  116  A    between atoms: _288  and  _289
REMARK  117  A    between atoms: _292  and  _293
REMARK  118  A    between atoms: _298  and  _300
REMARK  119  A    between atoms: _300  and  _301
REMARK  120  A    between atoms: _300  and  _303
REMARK  121  A    between atoms: _303  and  _304
REMARK  122  A    between atoms: _304  and  _305
REMARK  123  A    between atoms: _308  and  _310
REMARK  124  A    between atoms: _310  and  _311
REMARK  125  A    between atoms: _310  and  _313
REMARK  126  A    between atoms: _313  and  _314
REMARK  127  A    between atoms: _314  and  _315
REMARK  128  A    between atoms: _315  and  CA_629
REMARK  129  A    between atoms: _317  and  _319
REMARK  130  A    between atoms: _319  and  _320
REMARK  131  A    between atoms: _319  and  _322
REMARK  132  A    between atoms: _322  and  _323
REMARK  133  A    between atoms: _326  and  _328
REMARK  134  A    between atoms: _328  and  _329
REMARK  135  A    between atoms: _328  and  _331
REMARK  136  A    between atoms: _331  and  _332
REMARK  137  A    between atoms: _335  and  _337
REMARK  138  A    between atoms: _337  and  _338
REMARK  139  A    between atoms: _337  and  _340
REMARK  140  A    between atoms: _343  and  _345
REMARK  141  A    between atoms: _345  and  _346
REMARK  142  A    between atoms: _345  and  _348
REMARK  143  A    between atoms: _348  and  _349
REMARK  144  A    between atoms: _352  and  _354
REMARK  145  A    between atoms: _354  and  _355
REMARK  146  A    between atoms: _358  and  _359
REMARK  147  A    between atoms: _364  and  _366
REMARK  148  A    between atoms: _366  and  _367
REMARK  149  A    between atoms: _370  and  _372
REMARK  150  A    between atoms: _372  and  _373
REMARK  151  A    between atoms: _372  and  _375
REMARK  152  A    between atoms: _375  and  _376
REMARK  153  A    between atoms: _376  and  _377
REMARK  154  A    between atoms: _377  and  _378
REMARK  155  A    between atoms: _387  and  _389
REMARK  156  A    between atoms: _389  and  _390
REMARK  157  A    between atoms: _389  and  _392
REMARK  158  A    between atoms: _392  and  _393
REMARK  159  A    between atoms: _396  and  _398
REMARK  160  A    between atoms: _398  and  _399
REMARK  161  A    between atoms: _402  and  _404
REMARK  162  A    between atoms: _404  and  _405
REMARK  163  A    between atoms: _404  and  _407
REMARK  164  A    between atoms: _407  and  _408
REMARK  165  A    between atoms: _408  and  _409
REMARK  166  A    between atoms: _412  and  _414
REMARK  167  A    between atoms: _414  and  _415
REMARK  168  A    between atoms: _414  and  _417
REMARK  169  A    between atoms: _417  and  _418
REMARK  170  A    between atoms: _428  and  _430
REMARK  171  A    between atoms: _430  and  _431
REMARK  172  A    between atoms: _434  and  _436
REMARK  173  A    between atoms: _436  and  _437
REMARK  174  A    between atoms: _436  and  _439
REMARK  175  A    between atoms: _439  and  _440
REMARK  176  A    between atoms: _442  and  _444
REMARK  177  A    between atoms: _444  and  _445
REMARK  178  A    between atoms: _447  and  _449
REMARK  179  A    between atoms: _449  and  _450
REMARK  180  A    between atoms: _449  and  _452
REMARK  181  A    between atoms: _452  and  _453
REMARK  182  A    between atoms: _458  and  _460
REMARK  183  A    between atoms: _460  and  _461
REMARK  184  A    between atoms: _463  and  _465
REMARK  185  A    between atoms: _465  and  _466
REMARK  186  A    between atoms: _465  and  _468
REMARK  187  A    between atoms: _468  and  _469
REMARK  188  A    between atoms: _469  and  _471
REMARK  189  A    between atoms: _471  and  CA_629
REMARK  190  A    between atoms: _472  and  _474
REMARK  191  A    between atoms: _474  and  _475
REMARK  192  A    between atoms: _474  and  _477
REMARK  193  A    between atoms: _477  and  _478
REMARK  194  A    between atoms: _480  and  _482
REMARK  195  A    between atoms: _482  and  _483
REMARK  196  A    between atoms: _482  and  _485
REMARK  197  A    between atoms: _487  and  _489
REMARK  198  A    between atoms: _489  and  _490
REMARK  199  A    between atoms: _489  and  _492
REMARK  200  A    between atoms: _494  and  _496
REMARK  201  A    between atoms: _496  and  _497
REMARK  202  A    between atoms: _496  and  _499
REMARK  203  A    between atoms: _499  and  _500
REMARK  204  A    between atoms: _503  and  _505
REMARK  205  A    between atoms: _505  and  _506
REMARK  206  A    between atoms: _508  and  _510
REMARK  207  A    between atoms: _510  and  _511
REMARK  208  A    between atoms: _510  and  _513
REMARK  209  A    between atoms: _513  and  _514
REMARK  210  A    between atoms: _519  and  _520
REMARK  211  A    between atoms: _522  and  _524
REMARK  212  A    between atoms: _524  and  _525
REMARK  213  A    between atoms: _524  and  _527
REMARK  214  A    between atoms: _527  and  _528
REMARK  215  A    between atoms: _531  and  _533
REMARK  216  A    between atoms: _533  and  _534
REMARK  217  A    between atoms: _533  and  _536
REMARK  218  A    between atoms: _536  and  _537
REMARK  219  A    between atoms: _542  and  _544
REMARK  220  A    between atoms: _544  and  _545
REMARK  221  A    between atoms: _544  and  _547
REMARK  222  A    between atoms: _547  and  _548
REMARK  223  A    between atoms: _551  and  _553
REMARK  224  A    between atoms: _553  and  _554
REMARK  225  A    between atoms: _553  and  _556
REMARK  226  A    between atoms: _556  and  _557
REMARK  227  A    between atoms: _559  and  _561
REMARK  228  A    between atoms: _561  and  _562
REMARK  229  A    between atoms: _561  and  _564
REMARK  230  A    between atoms: _564  and  _565
REMARK  231  A    between atoms: _568  and  _570
REMARK  232  A    between atoms: _570  and  _571
REMARK  233  A    between atoms: _570  and  _573
REMARK  234  A    between atoms: _573  and  _574
REMARK  235  A    between atoms: _574  and  _575
REMARK  236  A    between atoms: _578  and  _580
REMARK  237  A    between atoms: _580  and  _581
REMARK  238  A    between atoms: _580  and  _583
REMARK  239  A    between atoms: _583  and  _584
REMARK  240  A    between atoms: _587  and  _589
REMARK  241  A    between atoms: _589  and  _590
REMARK  242  A    between atoms: _592  and  _594
REMARK  243  A    between atoms: _594  and  _595
REMARK  244  A    between atoms: _594  and  _597
REMARK  245  A    between atoms: _597  and  _598
REMARK  246  A    between atoms: _601  and  _603
REMARK  247  A    between atoms: _603  and  _604
REMARK  248  A    between atoms: _603  and  _606
REMARK  249  A    between atoms: _606  and  _607
REMARK  250  A    between atoms: _609  and  _611
REMARK  251  A    between atoms: _611  and  _612
REMARK  252  A    between atoms: _615  and  _617
REMARK  253  A    between atoms: _617  and  _618
REMARK  254  A    between atoms: _617  and  _620
REMARK  255  A    between atoms: _620  and  _621
REMARK  256  A    between atoms: _623  and  _625
REMARK  257  A    between atoms: _625  and  _626
REMARK                            x       y       z     vdW  Elec       q    Type
REMARK                         _______ _______ _______ _____ _____    ______ ____
ROOT
ATOM      1  O   HOH     1      20.679  21.495  -9.261  0.00  0.00    +0.000 OA
ENDROOT
TORSDOF 0
REMARK  Name = ../refined-set-2016/4omc/4omc_pocket.pdb
REMARK  257 active torsions:
REMARK  status: ('A' for Active; 'I' for Inactive)
REMARK    1  A    between atoms: _1  and  _3
REMARK    2  A    between atoms: _3  and  _4
REMARK    3  A    between atoms: _3  and  _6
REMARK    4  A    between atoms: _6  and  _7
REMARK    5  A    between atoms: _10  and  _12
REMARK    6  A    between atoms: _12  and  _13
REMARK    7  A    between atoms: _12  and  _15
REMARK    8  A    between atoms: _15  and  _16
REMARK    9  A    between atoms: _19  and  _21
REMARK   10  A    between atoms: _21  and  _22
REMARK   11  A    between atoms: _24  and  _26
REMARK   12  A    between atoms: _26  and  _27
REMARK   13  A    between atoms: _26  and  _29
REMARK   14  A    between atoms: _29  and  _30
REMARK   15  A    between atoms: _35  and  _37
REMARK   16  A    between atoms: _37  and  _38
REMARK   17  A    between atoms: _37  and  _40
REMARK   18  A    between atoms: _40  and  _41
REMARK   19  A    between atoms: _41  and  _42
REMARK   20  A    between atoms: _42  and  _43
REMARK   21  A    between atoms: _52  and  _54
REMARK   22  A    between atoms: _54  and  _55
REMARK   23  A    between atoms: _54  and  _57
REMARK   24  A    between atoms: _57  and  _58
REMARK   25  A    between atoms: _61  and  _63
REMARK   26  A    between atoms: _63  and  _64
REMARK   27  A    between atoms: _63  and  _66
REMARK   28  A    between atoms: _66  and  _67
REMARK   29  A    between atoms: _72  and  _74
REMARK   30  A    between atoms: _74  and  _75
REMARK   31  A    between atoms: _74  and  _77
REMARK   32  A    between atoms: _77  and  _78
REMARK   33  A    between atoms: _81  and  _83
REMARK   34  A    between atoms: _83  and  _84
REMARK   35  A    between atoms: _83  and  _86
REMARK   36  A    between atoms: _86  and  _87
REMARK   37  A    between atoms: _92  and  _94
REMARK   38  A    between atoms: _94  and  _95
REMARK   39  A    between atoms: _94  and  _97
REMARK   40  A    between atoms: _97  and  _98
REMARK   41  A    between atoms: _98  and  _99
REMARK   42  A    between atoms: _99  and  _100
REMARK   43  A    between atoms: _109  and  _111
REMARK   44  A    between atoms: _111  and  _112
REMARK   45  A    between atoms: _111  and  _114
REMARK   46  A    between atoms: _114  and  _115
REMARK   47  A    between atoms: _120  and  _122
REMARK   48  A    between atoms: _122  and  _123
REMARK   49  A    between atoms: _125  and  _127
REMARK   50  A    between atoms: _127  and  _128
REMARK   51  A    between atoms: _127  and  _130
REMARK   52  A    between atoms: _130  and  _131
REMARK   53  A    between atoms: _134  and  _136
REMARK   54  A    between atoms: _136  and  _137
REMARK   55  A    between atoms: _136  and  _139
REMARK   56  A    between atoms: _141  and  _143
REMARK   57  A    between atoms: _143  and  _144
REMARK   58  A    between atoms: _143  and  _146
REMARK   59  A    between atoms: _146  and  _147
REMARK   60  A    between atoms: _147  and  _148
REMARK   61  A    between atoms: _148  and  _149
REMARK   62  A    between atoms: _158  and  _160
REMARK   63  A    between atoms: _160  and  _161
REMARK   64  A    between atoms: _160  and  _163
REMARK   65  A    between atoms: _163  and  _164
REMARK   66  A    between atoms: _164  and  _165
REMARK   67  A    between atoms: _167  and  _169
REMARK   68  A    between atoms: _169  and  _170
REMARK   69  A    between atoms: _169  and  _172
REMARK   70  A    between atoms: _172  and  _173
REMARK   71  A    between atoms: _176  and  _178
REMARK   72  A    between atoms: _178  and  _179
REMARK   73  A    between atoms: _178  and  _181
REMARK   74  A    between atoms: _181  and  _182
REMARK   75  A    between atoms: _185  and  _187
REMARK   76  A    between atoms: _187  and  _188
REMARK   77  A    between atoms: _190  and  _192
REMARK   78  A    between atoms: _192  and  _193
REMARK   79  A    between atoms: _192  and  _195
REMARK   80  A    between atoms: _195  and  _196
REMARK   81  A    between atoms: _196  and  _197
REMARK   82  A    between atoms: _200  and  _202
REMARK   83  A    between atoms: _202  and  _203
REMARK   84  A    between atoms: _202  and  _205
REMARK   85  A    between atoms: _208  and  _210
REMARK   86  A    between atoms: _210  and  _211
REMARK   87  A    between atoms: _210  and  _213
REMARK   88  A    between atoms: _213  and  _214
REMARK   89  A    between atoms: _217  and  _219
REMARK   90  A    between atoms: _219  and  _220
REMARK   91  A    between atoms: _219  and  _222
REMARK   92  A    between atoms: _222  and  _223
REMARK   93  A    between atoms: _226  and  _228
REMARK   94  A    between atoms: _228  and  _229
REMARK   95  A    between atoms: _232  and  _234
REMARK   96  A    between atoms: _234  and  _235
REMARK   97  A    between atoms: _234  and  _237
REMARK   98  A    between atoms: _240  and  _242
REMARK   99  A    between atoms: _242  and  _243
REMARK  100  A    between atoms: _242  and  _245
REMARK  101  A    between atoms: _245  and  _246
REMARK  102  A    between atoms: _246  and  _247
REMARK  103  A    between atoms: _250  and  _252
REMARK  104  A    between atoms: _252  and  _253
REMARK  105  A    between atoms: _256  and  _258
REMARK  106  A    between atoms: _258  and  _259
REMARK  107  A    between atoms: _262  and  _264
REMARK  108  A    between atoms: _264  and  _265
REMARK  109  A    between atoms: _264  and  _267
REMARK  110  A    between atoms: _267  and  _268
REMARK  111  A    between atoms: _270  and  _272
REMARK  112  A    between atoms: _272  and  _273
REMARK  113  A    between atoms: _272  and  _275
REMARK  114  A    between atoms: _275  and  _276
REMARK  115  A    between atoms: _286  and  _288
REMARK  116  A    between atoms: _288  and  _289
REMARK  117  A    between atoms: _292  and  _293
REMARK  118  A    between atoms: _298  and  _300
REMARK  119  A    between atoms: _300  and  _301
REMARK  120  A    between atoms: _300  and  _303
REMARK  121  A    between atoms: _303  and  _304
REMARK  122  A    between atoms: _304  and  _305
REMARK  123  A    between atoms: _308  and  _310
REMARK  124  A    between atoms: _310  and  _311
REMARK  125  A    between atoms: _310  and  _313
REMARK  126  A    between atoms: _313  and  _314
REMARK  127  A    between atoms: _314  and  _315
REMARK  128  A    between atoms: _315  and  CA_629
REMARK  129  A    between atoms: _317  and  _319
REMARK  130  A    between atoms: _319  and  _320
REMARK  131  A    between atoms: _319  and  _322
REMARK  132  A    between atoms: _322  and  _323
REMARK  133  A    between atoms: _326  and  _328
REMARK  134  A    between atoms: _328  and  _329
REMARK  135  A    between atoms: _328  and  _331
REMARK  136  A    between atoms: _331  and  _332
REMARK  137  A    between atoms: _335  and  _337
REMARK  138  A    between atoms: _337  and  _338
REMARK  139  A    between atoms: _337  and  _340
REMARK  140  A    between atoms: _343  and  _345
REMARK  141  A    between atoms: _345  and  _346
REMARK  142  A    between atoms: _345  and  _348
REMARK  143  A    between atoms: _348  and  _349
REMARK  144  A    between atoms: _352  and  _354
REMARK  145  A    between atoms: _354  and  _355
REMARK  146  A    between atoms: _358  and  _359
REMARK  147  A    between atoms: _364  and  _366
REMARK  148  A    between atoms: _366  and  _367
REMARK  149  A    between atoms: _370  and  _372
REMARK  150  A    between atoms: _372  and  _373
REMARK  151  A    between atoms: _372  and  _375
REMARK  152  A    between atoms: _375  and  _376
REMARK  153  A    between atoms: _376  and  _377
REMARK  154  A    between atoms: _377  and  _378
REMARK  155  A    between atoms: _387  and  _389
REMARK  156  A    between atoms: _389  and  _390
REMARK  157  A    between atoms: _389  and  _392
REMARK  158  A    between atoms: _392  and  _393
REMARK  159  A    between atoms: _396  and  _398
REMARK  160  A    between atoms: _398  and  _399
REMARK  161  A    between atoms: _402  and  _404
REMARK  162  A    between atoms: _404  and  _405
REMARK  163  A    between atoms: _404  and  _407
REMARK  164  A    between atoms: _407  and  _408
REMARK  165  A    between atoms: _408  and  _409
REMARK  166  A    between atoms: _412  and  _414
REMARK  167  A    between atoms: _414  and  _415
REMARK  168  A    between atoms: _414  and  _417
REMARK  169  A    between atoms: _417  and  _418
REMARK  170  A    between atoms: _428  and  _430
REMARK  171  A    between atoms: _430  and  _431
REMARK  172  A    between atoms: _434  and  _436
REMARK  173  A    between atoms: _436  and  _437
REMARK  174  A    between atoms: _436  and  _439
REMARK  175  A    between atoms: _439  and  _440
REMARK  176  A    between atoms: _442  and  _444
REMARK  177  A    between atoms: _444  and  _445
REMARK  178  A    between atoms: _447  and  _449
REMARK  179  A    between atoms: _449  and  _450
REMARK  180  A    between atoms: _449  and  _452
REMARK  181  A    between atoms: _452  and  _453
REMARK  182  A    between atoms: _458  and  _460
REMARK  183  A    between atoms: _460  and  _461
REMARK  184  A    between atoms: _463  and  _465
REMARK  185  A    between atoms: _465  and  _466
REMARK  186  A    between atoms: _465  and  _468
REMARK  187  A    between atoms: _468  and  _469
REMARK  188  A    between atoms: _469  and  _471
REMARK  189  A    between atoms: _471  and  CA_629
REMARK  190  A    between atoms: _472  and  _474
REMARK  191  A    between atoms: _474  and  _475
REMARK  192  A    between atoms: _474  and  _477
REMARK  193  A    between atoms: _477  and  _478
REMARK  194  A    between atoms: _480  and  _482
REMARK  195  A    between atoms: _482  and  _483
REMARK  196  A    between atoms: _482  and  _485
REMARK  197  A    between atoms: _487  and  _489
REMARK  198  A    between atoms: _489  and  _490
REMARK  199  A    between atoms: _489  and  _492
REMARK  200  A    between atoms: _494  and  _496
REMARK  201  A    between atoms: _496  and  _497
REMARK  202  A    between atoms: _496  and  _499
REMARK  203  A    between atoms: _499  and  _500
REMARK  204  A    between atoms: _503  and  _505
REMARK  205  A    between atoms: _505  and  _506
REMARK  206  A    between atoms: _508  and  _510
REMARK  207  A    between atoms: _510  and  _511
REMARK  208  A    between atoms: _510  and  _513
REMARK  209  A    between atoms: _513  and  _514
REMARK  210  A    between atoms: _519  and  _520
REMARK  211  A    between atoms: _522  and  _524
REMARK  212  A    between atoms: _524  and  _525
REMARK  213  A    between atoms: _524  and  _527
REMARK  214  A    between atoms: _527  and  _528
REMARK  215  A    between atoms: _531  and  _533
REMARK  216  A    between atoms: _533  and  _534
REMARK  217  A    between atoms: _533  and  _536
REMARK  218  A    between atoms: _536  and  _537
REMARK  219  A    between atoms: _542  and  _544
REMARK  220  A    between atoms: _544  and  _545
REMARK  221  A    between atoms: _544  and  _547
REMARK  222  A    between atoms: _547  and  _548
REMARK  223  A    between atoms: _551  and  _553
REMARK  224  A    between atoms: _553  and  _554
REMARK  225  A    between atoms: _553  and  _556
REMARK  226  A    between atoms: _556  and  _557
REMARK  227  A    between atoms: _559  and  _561
REMARK  228  A    between atoms: _561  and  _562
REMARK  229  A    between atoms: _561  and  _564
REMARK  230  A    between atoms: _564  and  _565
REMARK  231  A    between atoms: _568  and  _570
REMARK  232  A    between atoms: _570  and  _571
REMARK  233  A    between atoms: _570  and  _573
REMARK  234  A    between atoms: _573  and  _574
REMARK  235  A    between atoms: _574  and  _575
REMARK  236  A    between atoms: _578  and  _580
REMARK  237  A    between atoms: _580  and  _581
REMARK  238  A    between atoms: _580  and  _583
REMARK  239  A    between atoms: _583  and  _584
REMARK  240  A    between atoms: _587  and  _589
REMARK  241  A    between atoms: _589  and  _590
REMARK  242  A    between atoms: _592  and  _594
REMARK  243  A    between atoms: _594  and  _595
REMARK  244  A    between atoms: _594  and  _597
REMARK  245  A    between atoms: _597  and  _598
REMARK  246  A    between atoms: _601  and  _603
REMARK  247  A    between atoms: _603  and  _604
REMARK  248  A    between atoms: _603  and  _606
REMARK  249  A    between atoms: _606  and  _607
REMARK  250  A    between atoms: _609  and  _611
REMARK  251  A    between atoms: _611  and  _612
REMARK  252  A    between atoms: _615  and  _617
REMARK  253  A    between atoms: _617  and  _618
REMARK  254  A    between atoms: _617  and  _620
REMARK  255  A    between atoms: _620  and  _621
REMARK  256  A    between atoms: _623  and  _625
REMARK  257  A    between atoms: _625  and  _626
REMARK                            x       y       z     vdW  Elec       q    Type
REMARK                         _______ _______ _______ _____ _____    ______ ____
ROOT
ATOM      1  O   HOH     1      19.984  31.185 -12.256  0.00  0.00    +0.000 OA
ENDROOT
TORSDOF 0
REMARK  Name = ../refined-set-2016/4omc/4omc_pocket.pdb
REMARK  257 active torsions:
REMARK  status: ('A' for Active; 'I' for Inactive)
REMARK    1  A    between atoms: _1  and  _3
REMARK    2  A    between atoms: _3  and  _4
REMARK    3  A    between atoms: _3  and  _6
REMARK    4  A    between atoms: _6  and  _7
REMARK    5  A    between atoms: _10  and  _12
REMARK    6  A    between atoms: _12  and  _13
REMARK    7  A    between atoms: _12  and  _15
REMARK    8  A    between atoms: _15  and  _16
REMARK    9  A    between atoms: _19  and  _21
REMARK   10  A    between atoms: _21  and  _22
REMARK   11  A    between atoms: _24  and  _26
REMARK   12  A    between atoms: _26  and  _27
REMARK   13  A    between atoms: _26  and  _29
REMARK   14  A    between atoms: _29  and  _30
REMARK   15  A    between atoms: _35  and  _37
REMARK   16  A    between atoms: _37  and  _38
REMARK   17  A    between atoms: _37  and  _40
REMARK   18  A    between atoms: _40  and  _41
REMARK   19  A    between atoms: _41  and  _42
REMARK   20  A    between atoms: _42  and  _43
REMARK   21  A    between atoms: _52  and  _54
REMARK   22  A    between atoms: _54  and  _55
REMARK   23  A    between atoms: _54  and  _57
REMARK   24  A    between atoms: _57  and  _58
REMARK   25  A    between atoms: _61  and  _63
REMARK   26  A    between atoms: _63  and  _64
REMARK   27  A    between atoms: _63  and  _66
REMARK   28  A    between atoms: _66  and  _67
REMARK   29  A    between atoms: _72  and  _74
REMARK   30  A    between atoms: _74  and  _75
REMARK   31  A    between atoms: _74  and  _77
REMARK   32  A    between atoms: _77  and  _78
REMARK   33  A    between atoms: _81  and  _83
REMARK   34  A    between atoms: _83  and  _84
REMARK   35  A    between atoms: _83  and  _86
REMARK   36  A    between atoms: _86  and  _87
REMARK   37  A    between atoms: _92  and  _94
REMARK   38  A    between atoms: _94  and  _95
REMARK   39  A    between atoms: _94  and  _97
REMARK   40  A    between atoms: _97  and  _98
REMARK   41  A    between atoms: _98  and  _99
REMARK   42  A    between atoms: _99  and  _100
REMARK   43  A    between atoms: _109  and  _111
REMARK   44  A    between atoms: _111  and  _112
REMARK   45  A    between atoms: _111  and  _114
REMARK   46  A    between atoms: _114  and  _115
REMARK   47  A    between atoms: _120  and  _122
REMARK   48  A    between atoms: _122  and  _123
REMARK   49  A    between atoms: _125  and  _127
REMARK   50  A    between atoms: _127  and  _128
REMARK   51  A    between atoms: _127  and  _130
REMARK   52  A    between atoms: _130  and  _131
REMARK   53  A    between atoms: _134  and  _136
REMARK   54  A    between atoms: _136  and  _137
REMARK   55  A    between atoms: _136  and  _139
REMARK   56  A    between atoms: _141  and  _143
REMARK   57  A    between atoms: _143  and  _144
REMARK   58  A    between atoms: _143  and  _146
REMARK   59  A    between atoms: _146  and  _147
REMARK   60  A    between atoms: _147  and  _148
REMARK   61  A    between atoms: _148  and  _149
REMARK   62  A    between atoms: _158  and  _160
REMARK   63  A    between atoms: _160  and  _161
REMARK   64  A    between atoms: _160  and  _163
REMARK   65  A    between atoms: _163  and  _164
REMARK   66  A    between atoms: _164  and  _165
REMARK   67  A    between atoms: _167  and  _169
REMARK   68  A    between atoms: _169  and  _170
REMARK   69  A    between atoms: _169  and  _172
REMARK   70  A    between atoms: _172  and  _173
REMARK   71  A    between atoms: _176  and  _178
REMARK   72  A    between atoms: _178  and  _179
REMARK   73  A    between atoms: _178  and  _181
REMARK   74  A    between atoms: _181  and  _182
REMARK   75  A    between atoms: _185  and  _187
REMARK   76  A    between atoms: _187  and  _188
REMARK   77  A    between atoms: _190  and  _192
REMARK   78  A    between atoms: _192  and  _193
REMARK   79  A    between atoms: _192  and  _195
REMARK   80  A    between atoms: _195  and  _196
REMARK   81  A    between atoms: _196  and  _197
REMARK   82  A    between atoms: _200  and  _202
REMARK   83  A    between atoms: _202  and  _203
REMARK   84  A    between atoms: _202  and  _205
REMARK   85  A    between atoms: _208  and  _210
REMARK   86  A    between atoms: _210  and  _211
REMARK   87  A    between atoms: _210  and  _213
REMARK   88  A    between atoms: _213  and  _214
REMARK   89  A    between atoms: _217  and  _219
REMARK   90  A    between atoms: _219  and  _220
REMARK   91  A    between atoms: _219  and  _222
REMARK   92  A    between atoms: _222  and  _223
REMARK   93  A    between atoms: _226  and  _228
REMARK   94  A    between atoms: _228  and  _229
REMARK   95  A    between atoms: _232  and  _234
REMARK   96  A    between atoms: _234  and  _235
REMARK   97  A    between atoms: _234  and  _237
REMARK   98  A    between atoms: _240  and  _242
REMARK   99  A    between atoms: _242  and  _243
REMARK  100  A    between atoms: _242  and  _245
REMARK  101  A    between atoms: _245  and  _246
REMARK  102  A    between atoms: _246  and  _247
REMARK  103  A    between atoms: _250  and  _252
REMARK  104  A    between atoms: _252  and  _253
REMARK  105  A    between atoms: _256  and  _258
REMARK  106  A    between atoms: _258  and  _259
REMARK  107  A    between atoms: _262  and  _264
REMARK  108  A    between atoms: _264  and  _265
REMARK  109  A    between atoms: _264  and  _267
REMARK  110  A    between atoms: _267  and  _268
REMARK  111  A    between atoms: _270  and  _272
REMARK  112  A    between atoms: _272  and  _273
REMARK  113  A    between atoms: _272  and  _275
REMARK  114  A    between atoms: _275  and  _276
REMARK  115  A    between atoms: _286  and  _288
REMARK  116  A    between atoms: _288  and  _289
REMARK  117  A    between atoms: _292  and  _293
REMARK  118  A    between atoms: _298  and  _300
REMARK  119  A    between atoms: _300  and  _301
REMARK  120  A    between atoms: _300  and  _303
REMARK  121  A    between atoms: _303  and  _304
REMARK  122  A    between atoms: _304  and  _305
REMARK  123  A    between atoms: _308  and  _310
REMARK  124  A    between atoms: _310  and  _311
REMARK  125  A    between atoms: _310  and  _313
REMARK  126  A    between atoms: _313  and  _314
REMARK  127  A    between atoms: _314  and  _315
REMARK  128  A    between atoms: _315  and  CA_629
REMARK  129  A    between atoms: _317  and  _319
REMARK  130  A    between atoms: _319  and  _320
REMARK  131  A    between atoms: _319  and  _322
REMARK  132  A    between atoms: _322  and  _323
REMARK  133  A    between atoms: _326  and  _328
REMARK  134  A    between atoms: _328  and  _329
REMARK  135  A    between atoms: _328  and  _331
REMARK  136  A    between atoms: _331  and  _332
REMARK  137  A    between atoms: _335  and  _337
REMARK  138  A    between atoms: _337  and  _338
REMARK  139  A    between atoms: _337  and  _340
REMARK  140  A    between atoms: _343  and  _345
REMARK  141  A    between atoms: _345  and  _346
REMARK  142  A    between atoms: _345  and  _348
REMARK  143  A    between atoms: _348  and  _349
REMARK  144  A    between atoms: _352  and  _354
REMARK  145  A    between atoms: _354  and  _355
REMARK  146  A    between atoms: _358  and  _359
REMARK  147  A    between atoms: _364  and  _366
REMARK  148  A    between atoms: _366  and  _367
REMARK  149  A    between atoms: _370  and  _372
REMARK  150  A    between atoms: _372  and  _373
REMARK  151  A    between atoms: _372  and  _375
REMARK  152  A    between atoms: _375  and  _376
REMARK  153  A    between atoms: _376  and  _377
REMARK  154  A    between atoms: _377  and  _378
REMARK  155  A    between atoms: _387  and  _389
REMARK  156  A    between atoms: _389  and  _390
REMARK  157  A    between atoms: _389  and  _392
REMARK  158  A    between atoms: _392  and  _393
REMARK  159  A    between atoms: _396  and  _398
REMARK  160  A    between atoms: _398  and  _399
REMARK  161  A    between atoms: _402  and  _404
REMARK  162  A    between atoms: _404  and  _405
REMARK  163  A    between atoms: _404  and  _407
REMARK  164  A    between atoms: _407  and  _408
REMARK  165  A    between atoms: _408  and  _409
REMARK  166  A    between atoms: _412  and  _414
REMARK  167  A    between atoms: _414  and  _415
REMARK  168  A    between atoms: _414  and  _417
REMARK  169  A    between atoms: _417  and  _418
REMARK  170  A    between atoms: _428  and  _430
REMARK  171  A    between atoms: _430  and  _431
REMARK  172  A    between atoms: _434  and  _436
REMARK  173  A    between atoms: _436  and  _437
REMARK  174  A    between atoms: _436  and  _439
REMARK  175  A    between atoms: _439  and  _440
REMARK  176  A    between atoms: _442  and  _444
REMARK  177  A    between atoms: _444  and  _445
REMARK  178  A    between atoms: _447  and  _449
REMARK  179  A    between atoms: _449  and  _450
REMARK  180  A    between atoms: _449  and  _452
REMARK  181  A    between atoms: _452  and  _453
REMARK  182  A    between atoms: _458  and  _460
REMARK  183  A    between atoms: _460  and  _461
REMARK  184  A    between atoms: _463  and  _465
REMARK  185  A    between atoms: _465  and  _466
REMARK  186  A    between atoms: _465  and  _468
REMARK  187  A    between atoms: _468  and  _469
REMARK  188  A    between atoms: _469  and  _471
REMARK  189  A    between atoms: _471  and  CA_629
REMARK  190  A    between atoms: _472  and  _474
REMARK  191  A    between atoms: _474  and  _475
REMARK  192  A    between atoms: _474  and  _477
REMARK  193  A    between atoms: _477  and  _478
REMARK  194  A    between atoms: _480  and  _482
REMARK  195  A    between atoms: _482  and  _483
REMARK  196  A    between atoms: _482  and  _485
REMARK  197  A    between atoms: _487  and  _489
REMARK  198  A    between atoms: _489  and  _490
REMARK  199  A    between atoms: _489  and  _492
REMARK  200  A    between atoms: _494  and  _496
REMARK  201  A    between atoms: _496  and  _497
REMARK  202  A    between atoms: _496  and  _499
REMARK  203  A    between atoms: _499  and  _500
REMARK  204  A    between atoms: _503  and  _505
REMARK  205  A    between atoms: _505  and  _506
REMARK  206  A    between atoms: _508  and  _510
REMARK  207  A    between atoms: _510  and  _511
REMARK  208  A    between atoms: _510  and  _513
REMARK  209  A    between atoms: _513  and  _514
REMARK  210  A    between atoms: _519  and  _520
REMARK  211  A    between atoms: _522  and  _524
REMARK  212  A    between atoms: _524  and  _525
REMARK  213  A    between atoms: _524  and  _527
REMARK  214  A    between atoms: _527  and  _528
REMARK  215  A    between atoms: _531  and  _533
REMARK  216  A    between atoms: _533  and  _534
REMARK  217  A    between atoms: _533  and  _536
REMARK  218  A    between atoms: _536  and  _537
REMARK  219  A    between atoms: _542  and  _544
REMARK  220  A    between atoms: _544  and  _545
REMARK  221  A    between atoms: _544  and  _547
REMARK  222  A    between atoms: _547  and  _548
REMARK  223  A    between atoms: _551  and  _553
REMARK  224  A    between atoms: _553  and  _554
REMARK  225  A    between atoms: _553  and  _556
REMARK  226  A    between atoms: _556  and  _557
REMARK  227  A    between atoms: _559  and  _561
REMARK  228  A    between atoms: _561  and  _562
REMARK  229  A    between atoms: _561  and  _564
REMARK  230  A    between atoms: _564  and  _565
REMARK  231  A    between atoms: _568  and  _570
REMARK  232  A    between atoms: _570  and  _571
REMARK  233  A    between atoms: _570  and  _573
REMARK  234  A    between atoms: _573  and  _574
REMARK  235  A    between atoms: _574  and  _575
REMARK  236  A    between atoms: _578  and  _580
REMARK  237  A    between atoms: _580  and  _581
REMARK  238  A    between atoms: _580  and  _583
REMARK  239  A    between atoms: _583  and  _584
REMARK  240  A    between atoms: _587  and  _589
REMARK  241  A    between atoms: _589  and  _590
REMARK  242  A    between atoms: _592  and  _594
REMARK  243  A    between atoms: _594  and  _595
REMARK  244  A    between atoms: _594  and  _597
REMARK  245  A    between atoms: _597  and  _598
REMARK  246  A    between atoms: _601  and  _603
REMARK  247  A    between atoms: _603  and  _604
REMARK  248  A    between atoms: _603  and  _606
REMARK  249  A    between atoms: _606  and  _607
REMARK  250  A    between atoms: _609  and  _611
REMARK  251  A    between atoms: _611  and  _612
REMARK  252  A    between atoms: _615  and  _617
REMARK  253  A    between atoms: _617  and  _618
REMARK  254  A    between atoms: _617  and  _620
REMARK  255  A    between atoms: _620  and  _621
REMARK  256  A    between atoms: _623  and  _625
REMARK  257  A    between atoms: _625  and  _626
REMARK                            x       y       z     vdW  Elec       q    Type
REMARK                         _______ _______ _______ _____ _____    ______ ____
ROOT
ATOM      1  O   HOH     1      35.843  28.759  -6.903  0.00  0.00    +0.000 OA
ENDROOT
TORSDOF 0
REMARK  Name = ../refined-set-2016/4omc/4omc_pocket.pdb
REMARK  257 active torsions:
REMARK  status: ('A' for Active; 'I' for Inactive)
REMARK    1  A    between atoms: _1  and  _3
REMARK    2  A    between atoms: _3  and  _4
REMARK    3  A    between atoms: _3  and  _6
REMARK    4  A    between atoms: _6  and  _7
REMARK    5  A    between atoms: _10  and  _12
REMARK    6  A    between atoms: _12  and  _13
REMARK    7  A    between atoms: _12  and  _15
REMARK    8  A    between atoms: _15  and  _16
REMARK    9  A    between atoms: _19  and  _21
REMARK   10  A    between atoms: _21  and  _22
REMARK   11  A    between atoms: _24  and  _26
REMARK   12  A    between atoms: _26  and  _27
REMARK   13  A    between atoms: _26  and  _29
REMARK   14  A    between atoms: _29  and  _30
REMARK   15  A    between atoms: _35  and  _37
REMARK   16  A    between atoms: _37  and  _38
REMARK   17  A    between atoms: _37  and  _40
REMARK   18  A    between atoms: _40  and  _41
REMARK   19  A    between atoms: _41  and  _42
REMARK   20  A    between atoms: _42  and  _43
REMARK   21  A    between atoms: _52  and  _54
REMARK   22  A    between atoms: _54  and  _55
REMARK   23  A    between atoms: _54  and  _57
REMARK   24  A    between atoms: _57  and  _58
REMARK   25  A    between atoms: _61  and  _63
REMARK   26  A    between atoms: _63  and  _64
REMARK   27  A    between atoms: _63  and  _66
REMARK   28  A    between atoms: _66  and  _67
REMARK   29  A    between atoms: _72  and  _74
REMARK   30  A    between atoms: _74  and  _75
REMARK   31  A    between atoms: _74  and  _77
REMARK   32  A    between atoms: _77  and  _78
REMARK   33  A    between atoms: _81  and  _83
REMARK   34  A    between atoms: _83  and  _84
REMARK   35  A    between atoms: _83  and  _86
REMARK   36  A    between atoms: _86  and  _87
REMARK   37  A    between atoms: _92  and  _94
REMARK   38  A    between atoms: _94  and  _95
REMARK   39  A    between atoms: _94  and  _97
REMARK   40  A    between atoms: _97  and  _98
REMARK   41  A    between atoms: _98  and  _99
REMARK   42  A    between atoms: _99  and  _100
REMARK   43  A    between atoms: _109  and  _111
REMARK   44  A    between atoms: _111  and  _112
REMARK   45  A    between atoms: _111  and  _114
REMARK   46  A    between atoms: _114  and  _115
REMARK   47  A    between atoms: _120  and  _122
REMARK   48  A    between atoms: _122  and  _123
REMARK   49  A    between atoms: _125  and  _127
REMARK   50  A    between atoms: _127  and  _128
REMARK   51  A    between atoms: _127  and  _130
REMARK   52  A    between atoms: _130  and  _131
REMARK   53  A    between atoms: _134  and  _136
REMARK   54  A    between atoms: _136  and  _137
REMARK   55  A    between atoms: _136  and  _139
REMARK   56  A    between atoms: _141  and  _143
REMARK   57  A    between atoms: _143  and  _144
REMARK   58  A    between atoms: _143  and  _146
REMARK   59  A    between atoms: _146  and  _147
REMARK   60  A    between atoms: _147  and  _148
REMARK   61  A    between atoms: _148  and  _149
REMARK   62  A    between atoms: _158  and  _160
REMARK   63  A    between atoms: _160  and  _161
REMARK   64  A    between atoms: _160  and  _163
REMARK   65  A    between atoms: _163  and  _164
REMARK   66  A    between atoms: _164  and  _165
REMARK   67  A    between atoms: _167  and  _169
REMARK   68  A    between atoms: _169  and  _170
REMARK   69  A    between atoms: _169  and  _172
REMARK   70  A    between atoms: _172  and  _173
REMARK   71  A    between atoms: _176  and  _178
REMARK   72  A    between atoms: _178  and  _179
REMARK   73  A    between atoms: _178  and  _181
REMARK   74  A    between atoms: _181  and  _182
REMARK   75  A    between atoms: _185  and  _187
REMARK   76  A    between atoms: _187  and  _188
REMARK   77  A    between atoms: _190  and  _192
REMARK   78  A    between atoms: _192  and  _193
REMARK   79  A    between atoms: _192  and  _195
REMARK   80  A    between atoms: _195  and  _196
REMARK   81  A    between atoms: _196  and  _197
REMARK   82  A    between atoms: _200  and  _202
REMARK   83  A    between atoms: _202  and  _203
REMARK   84  A    between atoms: _202  and  _205
REMARK   85  A    between atoms: _208  and  _210
REMARK   86  A    between atoms: _210  and  _211
REMARK   87  A    between atoms: _210  and  _213
REMARK   88  A    between atoms: _213  and  _214
REMARK   89  A    between atoms: _217  and  _219
REMARK   90  A    between atoms: _219  and  _220
REMARK   91  A    between atoms: _219  and  _222
REMARK   92  A    between atoms: _222  and  _223
REMARK   93  A    between atoms: _226  and  _228
REMARK   94  A    between atoms: _228  and  _229
REMARK   95  A    between atoms: _232  and  _234
REMARK   96  A    between atoms: _234  and  _235
REMARK   97  A    between atoms: _234  and  _237
REMARK   98  A    between atoms: _240  and  _242
REMARK   99  A    between atoms: _242  and  _243
REMARK  100  A    between atoms: _242  and  _245
REMARK  101  A    between atoms: _245  and  _246
REMARK  102  A    between atoms: _246  and  _247
REMARK  103  A    between atoms: _250  and  _252
REMARK  104  A    between atoms: _252  and  _253
REMARK  105  A    between atoms: _256  and  _258
REMARK  106  A    between atoms: _258  and  _259
REMARK  107  A    between atoms: _262  and  _264
REMARK  108  A    between atoms: _264  and  _265
REMARK  109  A    between atoms: _264  and  _267
REMARK  110  A    between atoms: _267  and  _268
REMARK  111  A    between atoms: _270  and  _272
REMARK  112  A    between atoms: _272  and  _273
REMARK  113  A    between atoms: _272  and  _275
REMARK  114  A    between atoms: _275  and  _276
REMARK  115  A    between atoms: _286  and  _288
REMARK  116  A    between atoms: _288  and  _289
REMARK  117  A    between atoms: _292  and  _293
REMARK  118  A    between atoms: _298  and  _300
REMARK  119  A    between atoms: _300  and  _301
REMARK  120  A    between atoms: _300  and  _303
REMARK  121  A    between atoms: _303  and  _304
REMARK  122  A    between atoms: _304  and  _305
REMARK  123  A    between atoms: _308  and  _310
REMARK  124  A    between atoms: _310  and  _311
REMARK  125  A    between atoms: _310  and  _313
REMARK  126  A    between atoms: _313  and  _314
REMARK  127  A    between atoms: _314  and  _315
REMARK  128  A    between atoms: _315  and  CA_629
REMARK  129  A    between atoms: _317  and  _319
REMARK  130  A    between atoms: _319  and  _320
REMARK  131  A    between atoms: _319  and  _322
REMARK  132  A    between atoms: _322  and  _323
REMARK  133  A    between atoms: _326  and  _328
REMARK  134  A    between atoms: _328  and  _329
REMARK  135  A    between atoms: _328  and  _331
REMARK  136  A    between atoms: _331  and  _332
REMARK  137  A    between atoms: _335  and  _337
REMARK  138  A    between atoms: _337  and  _338
REMARK  139  A    between atoms: _337  and  _340
REMARK  140  A    between atoms: _343  and  _345
REMARK  141  A    between atoms: _345  and  _346
REMARK  142  A    between atoms: _345  and  _348
REMARK  143  A    between atoms: _348  and  _349
REMARK  144  A    between atoms: _352  and  _354
REMARK  145  A    between atoms: _354  and  _355
REMARK  146  A    between atoms: _358  and  _359
REMARK  147  A    between atoms: _364  and  _366
REMARK  148  A    between atoms: _366  and  _367
REMARK  149  A    between atoms: _370  and  _372
REMARK  150  A    between atoms: _372  and  _373
REMARK  151  A    between atoms: _372  and  _375
REMARK  152  A    between atoms: _375  and  _376
REMARK  153  A    between atoms: _376  and  _377
REMARK  154  A    between atoms: _377  and  _378
REMARK  155  A    between atoms: _387  and  _389
REMARK  156  A    between atoms: _389  and  _390
REMARK  157  A    between atoms: _389  and  _392
REMARK  158  A    between atoms: _392  and  _393
REMARK  159  A    between atoms: _396  and  _398
REMARK  160  A    between atoms: _398  and  _399
REMARK  161  A    between atoms: _402  and  _404
REMARK  162  A    between atoms: _404  and  _405
REMARK  163  A    between atoms: _404  and  _407
REMARK  164  A    between atoms: _407  and  _408
REMARK  165  A    between atoms: _408  and  _409
REMARK  166  A    between atoms: _412  and  _414
REMARK  167  A    between atoms: _414  and  _415
REMARK  168  A    between atoms: _414  and  _417
REMARK  169  A    between atoms: _417  and  _418
REMARK  170  A    between atoms: _428  and  _430
REMARK  171  A    between atoms: _430  and  _431
REMARK  172  A    between atoms: _434  and  _436
REMARK  173  A    between atoms: _436  and  _437
REMARK  174  A    between atoms: _436  and  _439
REMARK  175  A    between atoms: _439  and  _440
REMARK  176  A    between atoms: _442  and  _444
REMARK  177  A    between atoms: _444  and  _445
REMARK  178  A    between atoms: _447  and  _449
REMARK  179  A    between atoms: _449  and  _450
REMARK  180  A    between atoms: _449  and  _452
REMARK  181  A    between atoms: _452  and  _453
REMARK  182  A    between atoms: _458  and  _460
REMARK  183  A    between atoms: _460  and  _461
REMARK  184  A    between atoms: _463  and  _465
REMARK  185  A    between atoms: _465  and  _466
REMARK  186  A    between atoms: _465  and  _468
REMARK  187  A    between atoms: _468  and  _469
REMARK  188  A    between atoms: _469  and  _471
REMARK  189  A    between atoms: _471  and  CA_629
REMARK  190  A    between atoms: _472  and  _474
REMARK  191  A    between atoms: _474  and  _475
REMARK  192  A    between atoms: _474  and  _477
REMARK  193  A    between atoms: _477  and  _478
REMARK  194  A    between atoms: _480  and  _482
REMARK  195  A    between atoms: _482  and  _483
REMARK  196  A    between atoms: _482  and  _485
REMARK  197  A    between atoms: _487  and  _489
REMARK  198  A    between atoms: _489  and  _490
REMARK  199  A    between atoms: _489  and  _492
REMARK  200  A    between atoms: _494  and  _496
REMARK  201  A    between atoms: _496  and  _497
REMARK  202  A    between atoms: _496  and  _499
REMARK  203  A    between atoms: _499  and  _500
REMARK  204  A    between atoms: _503  and  _505
REMARK  205  A    between atoms: _505  and  _506
REMARK  206  A    between atoms: _508  and  _510
REMARK  207  A    between atoms: _510  and  _511
REMARK  208  A    between atoms: _510  and  _513
REMARK  209  A    between atoms: _513  and  _514
REMARK  210  A    between atoms: _519  and  _520
REMARK  211  A    between atoms: _522  and  _524
REMARK  212  A    between atoms: _524  and  _525
REMARK  213  A    between atoms: _524  and  _527
REMARK  214  A    between atoms: _527  and  _528
REMARK  215  A    between atoms: _531  and  _533
REMARK  216  A    between atoms: _533  and  _534
REMARK  217  A    between atoms: _533  and  _536
REMARK  218  A    between atoms: _536  and  _537
REMARK  219  A    between atoms: _542  and  _544
REMARK  220  A    between atoms: _544  and  _545
REMARK  221  A    between atoms: _544  and  _547
REMARK  222  A    between atoms: _547  and  _548
REMARK  223  A    between atoms: _551  and  _553
REMARK  224  A    between atoms: _553  and  _554
REMARK  225  A    between atoms: _553  and  _556
REMARK  226  A    between atoms: _556  and  _557
REMARK  227  A    between atoms: _559  and  _561
REMARK  228  A    between atoms: _561  and  _562
REMARK  229  A    between atoms: _561  and  _564
REMARK  230  A    between atoms: _564  and  _565
REMARK  231  A    between atoms: _568  and  _570
REMARK  232  A    between atoms: _570  and  _571
REMARK  233  A    between atoms: _570  and  _573
REMARK  234  A    between atoms: _573  and  _574
REMARK  235  A    between atoms: _574  and  _575
REMARK  236  A    between atoms: _578  and  _580
REMARK  237  A    between atoms: _580  and  _581
REMARK  238  A    between atoms: _580  and  _583
REMARK  239  A    between atoms: _583  and  _584
REMARK  240  A    between atoms: _587  and  _589
REMARK  241  A    between atoms: _589  and  _590
REMARK  242  A    between atoms: _592  and  _594
REMARK  243  A    between atoms: _594  and  _595
REMARK  244  A    between atoms: _594  and  _597
REMARK  245  A    between atoms: _597  and  _598
REMARK  246  A    between atoms: _601  and  _603
REMARK  247  A    between atoms: _603  and  _604
REMARK  248  A    between atoms: _603  and  _606
REMARK  249  A    between atoms: _606  and  _607
REMARK  250  A    between atoms: _609  and  _611
REMARK  251  A    between atoms: _611  and  _612
REMARK  252  A    between atoms: _615  and  _617
REMARK  253  A    between atoms: _617  and  _618
REMARK  254  A    between atoms: _617  and  _620
REMARK  255  A    between atoms: _620  and  _621
REMARK  256  A    between atoms: _623  and  _625
REMARK  257  A    between atoms: _625  and  _626
REMARK                            x       y       z     vdW  Elec       q    Type
REMARK                         _______ _______ _______ _____ _____    ______ ____
ROOT
ATOM      1  O   HOH     1      32.630  19.462  -8.578  0.00  0.00    +0.000 OA
ENDROOT
TORSDOF 0
REMARK  Name = ../refined-set-2016/4omc/4omc_pocket.pdb
REMARK  257 active torsions:
REMARK  status: ('A' for Active; 'I' for Inactive)
REMARK    1  A    between atoms: _1  and  _3
REMARK    2  A    between atoms: _3  and  _4
REMARK    3  A    between atoms: _3  and  _6
REMARK    4  A    between atoms: _6  and  _7
REMARK    5  A    between atoms: _10  and  _12
REMARK    6  A    between atoms: _12  and  _13
REMARK    7  A    between atoms: _12  and  _15
REMARK    8  A    between atoms: _15  and  _16
REMARK    9  A    between atoms: _19  and  _21
REMARK   10  A    between atoms: _21  and  _22
REMARK   11  A    between atoms: _24  and  _26
REMARK   12  A    between atoms: _26  and  _27
REMARK   13  A    between atoms: _26  and  _29
REMARK   14  A    between atoms: _29  and  _30
REMARK   15  A    between atoms: _35  and  _37
REMARK   16  A    between atoms: _37  and  _38
REMARK   17  A    between atoms: _37  and  _40
REMARK   18  A    between atoms: _40  and  _41
REMARK   19  A    between atoms: _41  and  _42
REMARK   20  A    between atoms: _42  and  _43
REMARK   21  A    between atoms: _52  and  _54
REMARK   22  A    between atoms: _54  and  _55
REMARK   23  A    between atoms: _54  and  _57
REMARK   24  A    between atoms: _57  and  _58
REMARK   25  A    between atoms: _61  and  _63
REMARK   26  A    between atoms: _63  and  _64
REMARK   27  A    between atoms: _63  and  _66
REMARK   28  A    between atoms: _66  and  _67
REMARK   29  A    between atoms: _72  and  _74
REMARK   30  A    between atoms: _74  and  _75
REMARK   31  A    between atoms: _74  and  _77
REMARK   32  A    between atoms: _77  and  _78
REMARK   33  A    between atoms: _81  and  _83
REMARK   34  A    between atoms: _83  and  _84
REMARK   35  A    between atoms: _83  and  _86
REMARK   36  A    between atoms: _86  and  _87
REMARK   37  A    between atoms: _92  and  _94
REMARK   38  A    between atoms: _94  and  _95
REMARK   39  A    between atoms: _94  and  _97
REMARK   40  A    between atoms: _97  and  _98
REMARK   41  A    between atoms: _98  and  _99
REMARK   42  A    between atoms: _99  and  _100
REMARK   43  A    between atoms: _109  and  _111
REMARK   44  A    between atoms: _111  and  _112
REMARK   45  A    between atoms: _111  and  _114
REMARK   46  A    between atoms: _114  and  _115
REMARK   47  A    between atoms: _120  and  _122
REMARK   48  A    between atoms: _122  and  _123
REMARK   49  A    between atoms: _125  and  _127
REMARK   50  A    between atoms: _127  and  _128
REMARK   51  A    between atoms: _127  and  _130
REMARK   52  A    between atoms: _130  and  _131
REMARK   53  A    between atoms: _134  and  _136
REMARK   54  A    between atoms: _136  and  _137
REMARK   55  A    between atoms: _136  and  _139
REMARK   56  A    between atoms: _141  and  _143
REMARK   57  A    between atoms: _143  and  _144
REMARK   58  A    between atoms: _143  and  _146
REMARK   59  A    between atoms: _146  and  _147
REMARK   60  A    between atoms: _147  and  _148
REMARK   61  A    between atoms: _148  and  _149
REMARK   62  A    between atoms: _158  and  _160
REMARK   63  A    between atoms: _160  and  _161
REMARK   64  A    between atoms: _160  and  _163
REMARK   65  A    between atoms: _163  and  _164
REMARK   66  A    between atoms: _164  and  _165
REMARK   67  A    between atoms: _167  and  _169
REMARK   68  A    between atoms: _169  and  _170
REMARK   69  A    between atoms: _169  and  _172
REMARK   70  A    between atoms: _172  and  _173
REMARK   71  A    between atoms: _176  and  _178
REMARK   72  A    between atoms: _178  and  _179
REMARK   73  A    between atoms: _178  and  _181
REMARK   74  A    between atoms: _181  and  _182
REMARK   75  A    between atoms: _185  and  _187
REMARK   76  A    between atoms: _187  and  _188
REMARK   77  A    between atoms: _190  and  _192
REMARK   78  A    between atoms: _192  and  _193
REMARK   79  A    between atoms: _192  and  _195
REMARK   80  A    between atoms: _195  and  _196
REMARK   81  A    between atoms: _196  and  _197
REMARK   82  A    between atoms: _200  and  _202
REMARK   83  A    between atoms: _202  and  _203
REMARK   84  A    between atoms: _202  and  _205
REMARK   85  A    between atoms: _208  and  _210
REMARK   86  A    between atoms: _210  and  _211
REMARK   87  A    between atoms: _210  and  _213
REMARK   88  A    between atoms: _213  and  _214
REMARK   89  A    between atoms: _217  and  _219
REMARK   90  A    between atoms: _219  and  _220
REMARK   91  A    between atoms: _219  and  _222
REMARK   92  A    between atoms: _222  and  _223
REMARK   93  A    between atoms: _226  and  _228
REMARK   94  A    between atoms: _228  and  _229
REMARK   95  A    between atoms: _232  and  _234
REMARK   96  A    between atoms: _234  and  _235
REMARK   97  A    between atoms: _234  and  _237
REMARK   98  A    between atoms: _240  and  _242
REMARK   99  A    between atoms: _242  and  _243
REMARK  100  A    between atoms: _242  and  _245
REMARK  101  A    between atoms: _245  and  _246
REMARK  102  A    between atoms: _246  and  _247
REMARK  103  A    between atoms: _250  and  _252
REMARK  104  A    between atoms: _252  and  _253
REMARK  105  A    between atoms: _256  and  _258
REMARK  106  A    between atoms: _258  and  _259
REMARK  107  A    between atoms: _262  and  _264
REMARK  108  A    between atoms: _264  and  _265
REMARK  109  A    between atoms: _264  and  _267
REMARK  110  A    between atoms: _267  and  _268
REMARK  111  A    between atoms: _270  and  _272
REMARK  112  A    between atoms: _272  and  _273
REMARK  113  A    between atoms: _272  and  _275
REMARK  114  A    between atoms: _275  and  _276
REMARK  115  A    between atoms: _286  and  _288
REMARK  116  A    between atoms: _288  and  _289
REMARK  117  A    between atoms: _292  and  _293
REMARK  118  A    between atoms: _298  and  _300
REMARK  119  A    between atoms: _300  and  _301
REMARK  120  A    between atoms: _300  and  _303
REMARK  121  A    between atoms: _303  and  _304
REMARK  122  A    between atoms: _304  and  _305
REMARK  123  A    between atoms: _308  and  _310
REMARK  124  A    between atoms: _310  and  _311
REMARK  125  A    between atoms: _310  and  _313
REMARK  126  A    between atoms: _313  and  _314
REMARK  127  A    between atoms: _314  and  _315
REMARK  128  A    between atoms: _315  and  CA_629
REMARK  129  A    between atoms: _317  and  _319
REMARK  130  A    between atoms: _319  and  _320
REMARK  131  A    between atoms: _319  and  _322
REMARK  132  A    between atoms: _322  and  _323
REMARK  133  A    between atoms: _326  and  _328
REMARK  134  A    between atoms: _328  and  _329
REMARK  135  A    between atoms: _328  and  _331
REMARK  136  A    between atoms: _331  and  _332
REMARK  137  A    between atoms: _335  and  _337
REMARK  138  A    between atoms: _337  and  _338
REMARK  139  A    between atoms: _337  and  _340
REMARK  140  A    between atoms: _343  and  _345
REMARK  141  A    between atoms: _345  and  _346
REMARK  142  A    between atoms: _345  and  _348
REMARK  143  A    between atoms: _348  and  _349
REMARK  144  A    between atoms: _352  and  _354
REMARK  145  A    between atoms: _354  and  _355
REMARK  146  A    between atoms: _358  and  _359
REMARK  147  A    between atoms: _364  and  _366
REMARK  148  A    between atoms: _366  and  _367
REMARK  149  A    between atoms: _370  and  _372
REMARK  150  A    between atoms: _372  and  _373
REMARK  151  A    between atoms: _372  and  _375
REMARK  152  A    between atoms: _375  and  _376
REMARK  153  A    between atoms: _376  and  _377
REMARK  154  A    between atoms: _377  and  _378
REMARK  155  A    between atoms: _387  and  _389
REMARK  156  A    between atoms: _389  and  _390
REMARK  157  A    between atoms: _389  and  _392
REMARK  158  A    between atoms: _392  and  _393
REMARK  159  A    between atoms: _396  and  _398
REMARK  160  A    between atoms: _398  and  _399
REMARK  161  A    between atoms: _402  and  _404
REMARK  162  A    between atoms: _404  and  _405
REMARK  163  A    between atoms: _404  and  _407
REMARK  164  A    between atoms: _407  and  _408
REMARK  165  A    between atoms: _408  and  _409
REMARK  166  A    between atoms: _412  and  _414
REMARK  167  A    between atoms: _414  and  _415
REMARK  168  A    between atoms: _414  and  _417
REMARK  169  A    between atoms: _417  and  _418
REMARK  170  A    between atoms: _428  and  _430
REMARK  171  A    between atoms: _430  and  _431
REMARK  172  A    between atoms: _434  and  _436
REMARK  173  A    between atoms: _436  and  _437
REMARK  174  A    between atoms: _436  and  _439
REMARK  175  A    between atoms: _439  and  _440
REMARK  176  A    between atoms: _442  and  _444
REMARK  177  A    between atoms: _444  and  _445
REMARK  178  A    between atoms: _447  and  _449
REMARK  179  A    between atoms: _449  and  _450
REMARK  180  A    between atoms: _449  and  _452
REMARK  181  A    between atoms: _452  and  _453
REMARK  182  A    between atoms: _458  and  _460
REMARK  183  A    between atoms: _460  and  _461
REMARK  184  A    between atoms: _463  and  _465
REMARK  185  A    between atoms: _465  and  _466
REMARK  186  A    between atoms: _465  and  _468
REMARK  187  A    between atoms: _468  and  _469
REMARK  188  A    between atoms: _469  and  _471
REMARK  189  A    between atoms: _471  and  CA_629
REMARK  190  A    between atoms: _472  and  _474
REMARK  191  A    between atoms: _474  and  _475
REMARK  192  A    between atoms: _474  and  _477
REMARK  193  A    between atoms: _477  and  _478
REMARK  194  A    between atoms: _480  and  _482
REMARK  195  A    between atoms: _482  and  _483
REMARK  196  A    between atoms: _482  and  _485
REMARK  197  A    between atoms: _487  and  _489
REMARK  198  A    between atoms: _489  and  _490
REMARK  199  A    between atoms: _489  and  _492
REMARK  200  A    between atoms: _494  and  _496
REMARK  201  A    between atoms: _496  and  _497
REMARK  202  A    between atoms: _496  and  _499
REMARK  203  A    between atoms: _499  and  _500
REMARK  204  A    between atoms: _503  and  _505
REMARK  205  A    between atoms: _505  and  _506
REMARK  206  A    between atoms: _508  and  _510
REMARK  207  A    between atoms: _510  and  _511
REMARK  208  A    between atoms: _510  and  _513
REMARK  209  A    between atoms: _513  and  _514
REMARK  210  A    between atoms: _519  and  _520
REMARK  211  A    between atoms: _522  and  _524
REMARK  212  A    between atoms: _524  and  _525
REMARK  213  A    between atoms: _524  and  _527
REMARK  214  A    between atoms: _527  and  _528
REMARK  215  A    between atoms: _531  and  _533
REMARK  216  A    between atoms: _533  and  _534
REMARK  217  A    between atoms: _533  and  _536
REMARK  218  A    between atoms: _536  and  _537
REMARK  219  A    between atoms: _542  and  _544
REMARK  220  A    between atoms: _544  and  _545
REMARK  221  A    between atoms: _544  and  _547
REMARK  222  A    between atoms: _547  and  _548
REMARK  223  A    between atoms: _551  and  _553
REMARK  224  A    between atoms: _553  and  _554
REMARK  225  A    between atoms: _553  and  _556
REMARK  226  A    between atoms: _556  and  _557
REMARK  227  A    between atoms: _559  and  _561
REMARK  228  A    between atoms: _561  and  _562
REMARK  229  A    between atoms: _561  and  _564
REMARK  230  A    between atoms: _564  and  _565
REMARK  231  A    between atoms: _568  and  _570
REMARK  232  A    between atoms: _570  and  _571
REMARK  233  A    between atoms: _570  and  _573
REMARK  234  A    between atoms: _573  and  _574
REMARK  235  A    between atoms: _574  and  _575
REMARK  236  A    between atoms: _578  and  _580
REMARK  237  A    between atoms: _580  and  _581
REMARK  238  A    between atoms: _580  and  _583
REMARK  239  A    between atoms: _583  and  _584
REMARK  240  A    between atoms: _587  and  _589
REMARK  241  A    between atoms: _589  and  _590
REMARK  242  A    between atoms: _592  and  _594
REMARK  243  A    between atoms: _594  and  _595
REMARK  244  A    between atoms: _594  and  _597
REMARK  245  A    between atoms: _597  and  _598
REMARK  246  A    between atoms: _601  and  _603
REMARK  247  A    between atoms: _603  and  _604
REMARK  248  A    between atoms: _603  and  _606
REMARK  249  A    between atoms: _606  and  _607
REMARK  250  A    between atoms: _609  and  _611
REMARK  251  A    between atoms: _611  and  _612
REMARK  252  A    between atoms: _615  and  _617
REMARK  253  A    between atoms: _617  and  _618
REMARK  254  A    between atoms: _617  and  _620
REMARK  255  A    between atoms: _620  and  _621
REMARK  256  A    between atoms: _623  and  _625
REMARK  257  A    between atoms: _625  and  _626
REMARK                            x       y       z     vdW  Elec       q    Type
REMARK                         _______ _______ _______ _____ _____    ______ ____
ROOT
ATOM      1  O   HOH     1      36.240  37.219  -4.999  0.00  0.00    +0.000 OA
ENDROOT
TORSDOF 0
REMARK  Name = ../refined-set-2016/4omc/4omc_pocket.pdb
REMARK  257 active torsions:
REMARK  status: ('A' for Active; 'I' for Inactive)
REMARK    1  A    between atoms: _1  and  _3
REMARK    2  A    between atoms: _3  and  _4
REMARK    3  A    between atoms: _3  and  _6
REMARK    4  A    between atoms: _6  and  _7
REMARK    5  A    between atoms: _10  and  _12
REMARK    6  A    between atoms: _12  and  _13
REMARK    7  A    between atoms: _12  and  _15
REMARK    8  A    between atoms: _15  and  _16
REMARK    9  A    between atoms: _19  and  _21
REMARK   10  A    between atoms: _21  and  _22
REMARK   11  A    between atoms: _24  and  _26
REMARK   12  A    between atoms: _26  and  _27
REMARK   13  A    between atoms: _26  and  _29
REMARK   14  A    between atoms: _29  and  _30
REMARK   15  A    between atoms: _35  and  _37
REMARK   16  A    between atoms: _37  and  _38
REMARK   17  A    between atoms: _37  and  _40
REMARK   18  A    between atoms: _40  and  _41
REMARK   19  A    between atoms: _41  and  _42
REMARK   20  A    between atoms: _42  and  _43
REMARK   21  A    between atoms: _52  and  _54
REMARK   22  A    between atoms: _54  and  _55
REMARK   23  A    between atoms: _54  and  _57
REMARK   24  A    between atoms: _57  and  _58
REMARK   25  A    between atoms: _61  and  _63
REMARK   26  A    between atoms: _63  and  _64
REMARK   27  A    between atoms: _63  and  _66
REMARK   28  A    between atoms: _66  and  _67
REMARK   29  A    between atoms: _72  and  _74
REMARK   30  A    between atoms: _74  and  _75
REMARK   31  A    between atoms: _74  and  _77
REMARK   32  A    between atoms: _77  and  _78
REMARK   33  A    between atoms: _81  and  _83
REMARK   34  A    between atoms: _83  and  _84
REMARK   35  A    between atoms: _83  and  _86
REMARK   36  A    between atoms: _86  and  _87
REMARK   37  A    between atoms: _92  and  _94
REMARK   38  A    between atoms: _94  and  _95
REMARK   39  A    between atoms: _94  and  _97
REMARK   40  A    between atoms: _97  and  _98
REMARK   41  A    between atoms: _98  and  _99
REMARK   42  A    between atoms: _99  and  _100
REMARK   43  A    between atoms: _109  and  _111
REMARK   44  A    between atoms: _111  and  _112
REMARK   45  A    between atoms: _111  and  _114
REMARK   46  A    between atoms: _114  and  _115
REMARK   47  A    between atoms: _120  and  _122
REMARK   48  A    between atoms: _122  and  _123
REMARK   49  A    between atoms: _125  and  _127
REMARK   50  A    between atoms: _127  and  _128
REMARK   51  A    between atoms: _127  and  _130
REMARK   52  A    between atoms: _130  and  _131
REMARK   53  A    between atoms: _134  and  _136
REMARK   54  A    between atoms: _136  and  _137
REMARK   55  A    between atoms: _136  and  _139
REMARK   56  A    between atoms: _141  and  _143
REMARK   57  A    between atoms: _143  and  _144
REMARK   58  A    between atoms: _143  and  _146
REMARK   59  A    between atoms: _146  and  _147
REMARK   60  A    between atoms: _147  and  _148
REMARK   61  A    between atoms: _148  and  _149
REMARK   62  A    between atoms: _158  and  _160
REMARK   63  A    between atoms: _160  and  _161
REMARK   64  A    between atoms: _160  and  _163
REMARK   65  A    between atoms: _163  and  _164
REMARK   66  A    between atoms: _164  and  _165
REMARK   67  A    between atoms: _167  and  _169
REMARK   68  A    between atoms: _169  and  _170
REMARK   69  A    between atoms: _169  and  _172
REMARK   70  A    between atoms: _172  and  _173
REMARK   71  A    between atoms: _176  and  _178
REMARK   72  A    between atoms: _178  and  _179
REMARK   73  A    between atoms: _178  and  _181
REMARK   74  A    between atoms: _181  and  _182
REMARK   75  A    between atoms: _185  and  _187
REMARK   76  A    between atoms: _187  and  _188
REMARK   77  A    between atoms: _190  and  _192
REMARK   78  A    between atoms: _192  and  _193
REMARK   79  A    between atoms: _192  and  _195
REMARK   80  A    between atoms: _195  and  _196
REMARK   81  A    between atoms: _196  and  _197
REMARK   82  A    between atoms: _200  and  _202
REMARK   83  A    between atoms: _202  and  _203
REMARK   84  A    between atoms: _202  and  _205
REMARK   85  A    between atoms: _208  and  _210
REMARK   86  A    between atoms: _210  and  _211
REMARK   87  A    between atoms: _210  and  _213
REMARK   88  A    between atoms: _213  and  _214
REMARK   89  A    between atoms: _217  and  _219
REMARK   90  A    between atoms: _219  and  _220
REMARK   91  A    between atoms: _219  and  _222
REMARK   92  A    between atoms: _222  and  _223
REMARK   93  A    between atoms: _226  and  _228
REMARK   94  A    between atoms: _228  and  _229
REMARK   95  A    between atoms: _232  and  _234
REMARK   96  A    between atoms: _234  and  _235
REMARK   97  A    between atoms: _234  and  _237
REMARK   98  A    between atoms: _240  and  _242
REMARK   99  A    between atoms: _242  and  _243
REMARK  100  A    between atoms: _242  and  _245
REMARK  101  A    between atoms: _245  and  _246
REMARK  102  A    between atoms: _246  and  _247
REMARK  103  A    between atoms: _250  and  _252
REMARK  104  A    between atoms: _252  and  _253
REMARK  105  A    between atoms: _256  and  _258
REMARK  106  A    between atoms: _258  and  _259
REMARK  107  A    between atoms: _262  and  _264
REMARK  108  A    between atoms: _264  and  _265
REMARK  109  A    between atoms: _264  and  _267
REMARK  110  A    between atoms: _267  and  _268
REMARK  111  A    between atoms: _270  and  _272
REMARK  112  A    between atoms: _272  and  _273
REMARK  113  A    between atoms: _272  and  _275
REMARK  114  A    between atoms: _275  and  _276
REMARK  115  A    between atoms: _286  and  _288
REMARK  116  A    between atoms: _288  and  _289
REMARK  117  A    between atoms: _292  and  _293
REMARK  118  A    between atoms: _298  and  _300
REMARK  119  A    between atoms: _300  and  _301
REMARK  120  A    between atoms: _300  and  _303
REMARK  121  A    between atoms: _303  and  _304
REMARK  122  A    between atoms: _304  and  _305
REMARK  123  A    between atoms: _308  and  _310
REMARK  124  A    between atoms: _310  and  _311
REMARK  125  A    between atoms: _310  and  _313
REMARK  126  A    between atoms: _313  and  _314
REMARK  127  A    between atoms: _314  and  _315
REMARK  128  A    between atoms: _315  and  CA_629
REMARK  129  A    between atoms: _317  and  _319
REMARK  130  A    between atoms: _319  and  _320
REMARK  131  A    between atoms: _319  and  _322
REMARK  132  A    between atoms: _322  and  _323
REMARK  133  A    between atoms: _326  and  _328
REMARK  134  A    between atoms: _328  and  _329
REMARK  135  A    between atoms: _328  and  _331
REMARK  136  A    between atoms: _331  and  _332
REMARK  137  A    between atoms: _335  and  _337
REMARK  138  A    between atoms: _337  and  _338
REMARK  139  A    between atoms: _337  and  _340
REMARK  140  A    between atoms: _343  and  _345
REMARK  141  A    between atoms: _345  and  _346
REMARK  142  A    between atoms: _345  and  _348
REMARK  143  A    between atoms: _348  and  _349
REMARK  144  A    between atoms: _352  and  _354
REMARK  145  A    between atoms: _354  and  _355
REMARK  146  A    between atoms: _358  and  _359
REMARK  147  A    between atoms: _364  and  _366
REMARK  148  A    between atoms: _366  and  _367
REMARK  149  A    between atoms: _370  and  _372
REMARK  150  A    between atoms: _372  and  _373
REMARK  151  A    between atoms: _372  and  _375
REMARK  152  A    between atoms: _375  and  _376
REMARK  153  A    between atoms: _376  and  _377
REMARK  154  A    between atoms: _377  and  _378
REMARK  155  A    between atoms: _387  and  _389
REMARK  156  A    between atoms: _389  and  _390
REMARK  157  A    between atoms: _389  and  _392
REMARK  158  A    between atoms: _392  and  _393
REMARK  159  A    between atoms: _396  and  _398
REMARK  160  A    between atoms: _398  and  _399
REMARK  161  A    between atoms: _402  and  _404
REMARK  162  A    between atoms: _404  and  _405
REMARK  163  A    between atoms: _404  and  _407
REMARK  164  A    between atoms: _407  and  _408
REMARK  165  A    between atoms: _408  and  _409
REMARK  166  A    between atoms: _412  and  _414
REMARK  167  A    between atoms: _414  and  _415
REMARK  168  A    between atoms: _414  and  _417
REMARK  169  A    between atoms: _417  and  _418
REMARK  170  A    between atoms: _428  and  _430
REMARK  171  A    between atoms: _430  and  _431
REMARK  172  A    between atoms: _434  and  _436
REMARK  173  A    between atoms: _436  and  _437
REMARK  174  A    between atoms: _436  and  _439
REMARK  175  A    between atoms: _439  and  _440
REMARK  176  A    between atoms: _442  and  _444
REMARK  177  A    between atoms: _444  and  _445
REMARK  178  A    between atoms: _447  and  _449
REMARK  179  A    between atoms: _449  and  _450
REMARK  180  A    between atoms: _449  and  _452
REMARK  181  A    between atoms: _452  and  _453
REMARK  182  A    between atoms: _458  and  _460
REMARK  183  A    between atoms: _460  and  _461
REMARK  184  A    between atoms: _463  and  _465
REMARK  185  A    between atoms: _465  and  _466
REMARK  186  A    between atoms: _465  and  _468
REMARK  187  A    between atoms: _468  and  _469
REMARK  188  A    between atoms: _469  and  _471
REMARK  189  A    between atoms: _471  and  CA_629
REMARK  190  A    between atoms: _472  and  _474
REMARK  191  A    between atoms: _474  and  _475
REMARK  192  A    between atoms: _474  and  _477
REMARK  193  A    between atoms: _477  and  _478
REMARK  194  A    between atoms: _480  and  _482
REMARK  195  A    between atoms: _482  and  _483
REMARK  196  A    between atoms: _482  and  _485
REMARK  197  A    between atoms: _487  and  _489
REMARK  198  A    between atoms: _489  and  _490
REMARK  199  A    between atoms: _489  and  _492
REMARK  200  A    between atoms: _494  and  _496
REMARK  201  A    between atoms: _496  and  _497
REMARK  202  A    between atoms: _496  and  _499
REMARK  203  A    between atoms: _499  and  _500
REMARK  204  A    between atoms: _503  and  _505
REMARK  205  A    between atoms: _505  and  _506
REMARK  206  A    between atoms: _508  and  _510
REMARK  207  A    between atoms: _510  and  _511
REMARK  208  A    between atoms: _510  and  _513
REMARK  209  A    between atoms: _513  and  _514
REMARK  210  A    between atoms: _519  and  _520
REMARK  211  A    between atoms: _522  and  _524
REMARK  212  A    between atoms: _524  and  _525
REMARK  213  A    between atoms: _524  and  _527
REMARK  214  A    between atoms: _527  and  _528
REMARK  215  A    between atoms: _531  and  _533
REMARK  216  A    between atoms: _533  and  _534
REMARK  217  A    between atoms: _533  and  _536
REMARK  218  A    between atoms: _536  and  _537
REMARK  219  A    between atoms: _542  and  _544
REMARK  220  A    between atoms: _544  and  _545
REMARK  221  A    between atoms: _544  and  _547
REMARK  222  A    between atoms: _547  and  _548
REMARK  223  A    between atoms: _551  and  _553
REMARK  224  A    between atoms: _553  and  _554
REMARK  225  A    between atoms: _553  and  _556
REMARK  226  A    between atoms: _556  and  _557
REMARK  227  A    between atoms: _559  and  _561
REMARK  228  A    between atoms: _561  and  _562
REMARK  229  A    between atoms: _561  and  _564
REMARK  230  A    between atoms: _564  and  _565
REMARK  231  A    between atoms: _568  and  _570
REMARK  232  A    between atoms: _570  and  _571
REMARK  233  A    between atoms: _570  and  _573
REMARK  234  A    between atoms: _573  and  _574
REMARK  235  A    between atoms: _574  and  _575
REMARK  236  A    between atoms: _578  and  _580
REMARK  237  A    between atoms: _580  and  _581
REMARK  238  A    between atoms: _580  and  _583
REMARK  239  A    between atoms: _583  and  _584
REMARK  240  A    between atoms: _587  and  _589
REMARK  241  A    between atoms: _589  and  _590
REMARK  242  A    between atoms: _592  and  _594
REMARK  243  A    between atoms: _594  and  _595
REMARK  244  A    between atoms: _594  and  _597
REMARK  245  A    between atoms: _597  and  _598
REMARK  246  A    between atoms: _601  and  _603
REMARK  247  A    between atoms: _603  and  _604
REMARK  248  A    between atoms: _603  and  _606
REMARK  249  A    between atoms: _606  and  _607
REMARK  250  A    between atoms: _609  and  _611
REMARK  251  A    between atoms: _611  and  _612
REMARK  252  A    between atoms: _615  and  _617
REMARK  253  A    between atoms: _617  and  _618
REMARK  254  A    between atoms: _617  and  _620
REMARK  255  A    between atoms: _620  and  _621
REMARK  256  A    between atoms: _623  and  _625
REMARK  257  A    between atoms: _625  and  _626
REMARK                            x       y       z     vdW  Elec       q    Type
REMARK                         _______ _______ _______ _____ _____    ______ ____
ROOT
ATOM      1  O   HOH     1      30.612  17.970 -11.182  0.00  0.00    +0.000 OA
ENDROOT
TORSDOF 0
REMARK  Name = ../refined-set-2016/4omc/4omc_pocket.pdb
REMARK  257 active torsions:
REMARK  status: ('A' for Active; 'I' for Inactive)
REMARK    1  A    between atoms: _1  and  _3
REMARK    2  A    between atoms: _3  and  _4
REMARK    3  A    between atoms: _3  and  _6
REMARK    4  A    between atoms: _6  and  _7
REMARK    5  A    between atoms: _10  and  _12
REMARK    6  A    between atoms: _12  and  _13
REMARK    7  A    between atoms: _12  and  _15
REMARK    8  A    between atoms: _15  and  _16
REMARK    9  A    between atoms: _19  and  _21
REMARK   10  A    between atoms: _21  and  _22
REMARK   11  A    between atoms: _24  and  _26
REMARK   12  A    between atoms: _26  and  _27
REMARK   13  A    between atoms: _26  and  _29
REMARK   14  A    between atoms: _29  and  _30
REMARK   15  A    between atoms: _35  and  _37
REMARK   16  A    between atoms: _37  and  _38
REMARK   17  A    between atoms: _37  and  _40
REMARK   18  A    between atoms: _40  and  _41
REMARK   19  A    between atoms: _41  and  _42
REMARK   20  A    between atoms: _42  and  _43
REMARK   21  A    between atoms: _52  and  _54
REMARK   22  A    between atoms: _54  and  _55
REMARK   23  A    between atoms: _54  and  _57
REMARK   24  A    between atoms: _57  and  _58
REMARK   25  A    between atoms: _61  and  _63
REMARK   26  A    between atoms: _63  and  _64
REMARK   27  A    between atoms: _63  and  _66
REMARK   28  A    between atoms: _66  and  _67
REMARK   29  A    between atoms: _72  and  _74
REMARK   30  A    between atoms: _74  and  _75
REMARK   31  A    between atoms: _74  and  _77
REMARK   32  A    between atoms: _77  and  _78
REMARK   33  A    between atoms: _81  and  _83
REMARK   34  A    between atoms: _83  and  _84
REMARK   35  A    between atoms: _83  and  _86
REMARK   36  A    between atoms: _86  and  _87
REMARK   37  A    between atoms: _92  and  _94
REMARK   38  A    between atoms: _94  and  _95
REMARK   39  A    between atoms: _94  and  _97
REMARK   40  A    between atoms: _97  and  _98
REMARK   41  A    between atoms: _98  and  _99
REMARK   42  A    between atoms: _99  and  _100
REMARK   43  A    between atoms: _109  and  _111
REMARK   44  A    between atoms: _111  and  _112
REMARK   45  A    between atoms: _111  and  _114
REMARK   46  A    between atoms: _114  and  _115
REMARK   47  A    between atoms: _120  and  _122
REMARK   48  A    between atoms: _122  and  _123
REMARK   49  A    between atoms: _125  and  _127
REMARK   50  A    between atoms: _127  and  _128
REMARK   51  A    between atoms: _127  and  _130
REMARK   52  A    between atoms: _130  and  _131
REMARK   53  A    between atoms: _134  and  _136
REMARK   54  A    between atoms: _136  and  _137
REMARK   55  A    between atoms: _136  and  _139
REMARK   56  A    between atoms: _141  and  _143
REMARK   57  A    between atoms: _143  and  _144
REMARK   58  A    between atoms: _143  and  _146
REMARK   59  A    between atoms: _146  and  _147
REMARK   60  A    between atoms: _147  and  _148
REMARK   61  A    between atoms: _148  and  _149
REMARK   62  A    between atoms: _158  and  _160
REMARK   63  A    between atoms: _160  and  _161
REMARK   64  A    between atoms: _160  and  _163
REMARK   65  A    between atoms: _163  and  _164
REMARK   66  A    between atoms: _164  and  _165
REMARK   67  A    between atoms: _167  and  _169
REMARK   68  A    between atoms: _169  and  _170
REMARK   69  A    between atoms: _169  and  _172
REMARK   70  A    between atoms: _172  and  _173
REMARK   71  A    between atoms: _176  and  _178
REMARK   72  A    between atoms: _178  and  _179
REMARK   73  A    between atoms: _178  and  _181
REMARK   74  A    between atoms: _181  and  _182
REMARK   75  A    between atoms: _185  and  _187
REMARK   76  A    between atoms: _187  and  _188
REMARK   77  A    between atoms: _190  and  _192
REMARK   78  A    between atoms: _192  and  _193
REMARK   79  A    between atoms: _192  and  _195
REMARK   80  A    between atoms: _195  and  _196
REMARK   81  A    between atoms: _196  and  _197
REMARK   82  A    between atoms: _200  and  _202
REMARK   83  A    between atoms: _202  and  _203
REMARK   84  A    between atoms: _202  and  _205
REMARK   85  A    between atoms: _208  and  _210
REMARK   86  A    between atoms: _210  and  _211
REMARK   87  A    between atoms: _210  and  _213
REMARK   88  A    between atoms: _213  and  _214
REMARK   89  A    between atoms: _217  and  _219
REMARK   90  A    between atoms: _219  and  _220
REMARK   91  A    between atoms: _219  and  _222
REMARK   92  A    between atoms: _222  and  _223
REMARK   93  A    between atoms: _226  and  _228
REMARK   94  A    between atoms: _228  and  _229
REMARK   95  A    between atoms: _232  and  _234
REMARK   96  A    between atoms: _234  and  _235
REMARK   97  A    between atoms: _234  and  _237
REMARK   98  A    between atoms: _240  and  _242
REMARK   99  A    between atoms: _242  and  _243
REMARK  100  A    between atoms: _242  and  _245
REMARK  101  A    between atoms: _245  and  _246
REMARK  102  A    between atoms: _246  and  _247
REMARK  103  A    between atoms: _250  and  _252
REMARK  104  A    between atoms: _252  and  _253
REMARK  105  A    between atoms: _256  and  _258
REMARK  106  A    between atoms: _258  and  _259
REMARK  107  A    between atoms: _262  and  _264
REMARK  108  A    between atoms: _264  and  _265
REMARK  109  A    between atoms: _264  and  _267
REMARK  110  A    between atoms: _267  and  _268
REMARK  111  A    between atoms: _270  and  _272
REMARK  112  A    between atoms: _272  and  _273
REMARK  113  A    between atoms: _272  and  _275
REMARK  114  A    between atoms: _275  and  _276
REMARK  115  A    between atoms: _286  and  _288
REMARK  116  A    between atoms: _288  and  _289
REMARK  117  A    between atoms: _292  and  _293
REMARK  118  A    between atoms: _298  and  _300
REMARK  119  A    between atoms: _300  and  _301
REMARK  120  A    between atoms: _300  and  _303
REMARK  121  A    between atoms: _303  and  _304
REMARK  122  A    between atoms: _304  and  _305
REMARK  123  A    between atoms: _308  and  _310
REMARK  124  A    between atoms: _310  and  _311
REMARK  125  A    between atoms: _310  and  _313
REMARK  126  A    between atoms: _313  and  _314
REMARK  127  A    between atoms: _314  and  _315
REMARK  128  A    between atoms: _315  and  CA_629
REMARK  129  A    between atoms: _317  and  _319
REMARK  130  A    between atoms: _319  and  _320
REMARK  131  A    between atoms: _319  and  _322
REMARK  132  A    between atoms: _322  and  _323
REMARK  133  A    between atoms: _326  and  _328
REMARK  134  A    between atoms: _328  and  _329
REMARK  135  A    between atoms: _328  and  _331
REMARK  136  A    between atoms: _331  and  _332
REMARK  137  A    between atoms: _335  and  _337
REMARK  138  A    between atoms: _337  and  _338
REMARK  139  A    between atoms: _337  and  _340
REMARK  140  A    between atoms: _343  and  _345
REMARK  141  A    between atoms: _345  and  _346
REMARK  142  A    between atoms: _345  and  _348
REMARK  143  A    between atoms: _348  and  _349
REMARK  144  A    between atoms: _352  and  _354
REMARK  145  A    between atoms: _354  and  _355
REMARK  146  A    between atoms: _358  and  _359
REMARK  147  A    between atoms: _364  and  _366
REMARK  148  A    between atoms: _366  and  _367
REMARK  149  A    between atoms: _370  and  _372
REMARK  150  A    between atoms: _372  and  _373
REMARK  151  A    between atoms: _372  and  _375
REMARK  152  A    between atoms: _375  and  _376
REMARK  153  A    between atoms: _376  and  _377
REMARK  154  A    between atoms: _377  and  _378
REMARK  155  A    between atoms: _387  and  _389
REMARK  156  A    between atoms: _389  and  _390
REMARK  157  A    between atoms: _389  and  _392
REMARK  158  A    between atoms: _392  and  _393
REMARK  159  A    between atoms: _396  and  _398
REMARK  160  A    between atoms: _398  and  _399
REMARK  161  A    between atoms: _402  and  _404
REMARK  162  A    between atoms: _404  and  _405
REMARK  163  A    between atoms: _404  and  _407
REMARK  164  A    between atoms: _407  and  _408
REMARK  165  A    between atoms: _408  and  _409
REMARK  166  A    between atoms: _412  and  _414
REMARK  167  A    between atoms: _414  and  _415
REMARK  168  A    between atoms: _414  and  _417
REMARK  169  A    between atoms: _417  and  _418
REMARK  170  A    between atoms: _428  and  _430
REMARK  171  A    between atoms: _430  and  _431
REMARK  172  A    between atoms: _434  and  _436
REMARK  173  A    between atoms: _436  and  _437
REMARK  174  A    between atoms: _436  and  _439
REMARK  175  A    between atoms: _439  and  _440
REMARK  176  A    between atoms: _442  and  _444
REMARK  177  A    between atoms: _444  and  _445
REMARK  178  A    between atoms: _447  and  _449
REMARK  179  A    between atoms: _449  and  _450
REMARK  180  A    between atoms: _449  and  _452
REMARK  181  A    between atoms: _452  and  _453
REMARK  182  A    between atoms: _458  and  _460
REMARK  183  A    between atoms: _460  and  _461
REMARK  184  A    between atoms: _463  and  _465
REMARK  185  A    between atoms: _465  and  _466
REMARK  186  A    between atoms: _465  and  _468
REMARK  187  A    between atoms: _468  and  _469
REMARK  188  A    between atoms: _469  and  _471
REMARK  189  A    between atoms: _471  and  CA_629
REMARK  190  A    between atoms: _472  and  _474
REMARK  191  A    between atoms: _474  and  _475
REMARK  192  A    between atoms: _474  and  _477
REMARK  193  A    between atoms: _477  and  _478
REMARK  194  A    between atoms: _480  and  _482
REMARK  195  A    between atoms: _482  and  _483
REMARK  196  A    between atoms: _482  and  _485
REMARK  197  A    between atoms: _487  and  _489
REMARK  198  A    between atoms: _489  and  _490
REMARK  199  A    between atoms: _489  and  _492
REMARK  200  A    between atoms: _494  and  _496
REMARK  201  A    between atoms: _496  and  _497
REMARK  202  A    between atoms: _496  and  _499
REMARK  203  A    between atoms: _499  and  _500
REMARK  204  A    between atoms: _503  and  _505
REMARK  205  A    between atoms: _505  and  _506
REMARK  206  A    between atoms: _508  and  _510
REMARK  207  A    between atoms: _510  and  _511
REMARK  208  A    between atoms: _510  and  _513
REMARK  209  A    between atoms: _513  and  _514
REMARK  210  A    between atoms: _519  and  _520
REMARK  211  A    between atoms: _522  and  _524
REMARK  212  A    between atoms: _524  and  _525
REMARK  213  A    between atoms: _524  and  _527
REMARK  214  A    between atoms: _527  and  _528
REMARK  215  A    between atoms: _531  and  _533
REMARK  216  A    between atoms: _533  and  _534
REMARK  217  A    between atoms: _533  and  _536
REMARK  218  A    between atoms: _536  and  _537
REMARK  219  A    between atoms: _542  and  _544
REMARK  220  A    between atoms: _544  and  _545
REMARK  221  A    between atoms: _544  and  _547
REMARK  222  A    between atoms: _547  and  _548
REMARK  223  A    between atoms: _551  and  _553
REMARK  224  A    between atoms: _553  and  _554
REMARK  225  A    between atoms: _553  and  _556
REMARK  226  A    between atoms: _556  and  _557
REMARK  227  A    between atoms: _559  and  _561
REMARK  228  A    between atoms: _561  and  _562
REMARK  229  A    between atoms: _561  and  _564
REMARK  230  A    between atoms: _564  and  _565
REMARK  231  A    between atoms: _568  and  _570
REMARK  232  A    between atoms: _570  and  _571
REMARK  233  A    between atoms: _570  and  _573
REMARK  234  A    between atoms: _573  and  _574
REMARK  235  A    between atoms: _574  and  _575
REMARK  236  A    between atoms: _578  and  _580
REMARK  237  A    between atoms: _580  and  _581
REMARK  238  A    between atoms: _580  and  _583
REMARK  239  A    between atoms: _583  and  _584
REMARK  240  A    between atoms: _587  and  _589
REMARK  241  A    between atoms: _589  and  _590
REMARK  242  A    between atoms: _592  and  _594
REMARK  243  A    between atoms: _594  and  _595
REMARK  244  A    between atoms: _594  and  _597
REMARK  245  A    between atoms: _597  and  _598
REMARK  246  A    between atoms: _601  and  _603
REMARK  247  A    between atoms: _603  and  _604
REMARK  248  A    between atoms: _603  and  _606
REMARK  249  A    between atoms: _606  and  _607
REMARK  250  A    between atoms: _609  and  _611
REMARK  251  A    between atoms: _611  and  _612
REMARK  252  A    between atoms: _615  and  _617
REMARK  253  A    between atoms: _617  and  _618
REMARK  254  A    between atoms: _617  and  _620
REMARK  255  A    between atoms: _620  and  _621
REMARK  256  A    between atoms: _623  and  _625
REMARK  257  A    between atoms: _625  and  _626
REMARK                            x       y       z     vdW  Elec       q    Type
REMARK                         _______ _______ _______ _____ _____    ______ ____
ROOT
ATOM      1  O   HOH     1      22.549  22.723 -12.808  0.00  0.00    +0.000 OA
ENDROOT
TORSDOF 0
REMARK  Name = ../refined-set-2016/4omc/4omc_pocket.pdb
REMARK  257 active torsions:
REMARK  status: ('A' for Active; 'I' for Inactive)
REMARK    1  A    between atoms: _1  and  _3
REMARK    2  A    between atoms: _3  and  _4
REMARK    3  A    between atoms: _3  and  _6
REMARK    4  A    between atoms: _6  and  _7
REMARK    5  A    between atoms: _10  and  _12
REMARK    6  A    between atoms: _12  and  _13
REMARK    7  A    between atoms: _12  and  _15
REMARK    8  A    between atoms: _15  and  _16
REMARK    9  A    between atoms: _19  and  _21
REMARK   10  A    between atoms: _21  and  _22
REMARK   11  A    between atoms: _24  and  _26
REMARK   12  A    between atoms: _26  and  _27
REMARK   13  A    between atoms: _26  and  _29
REMARK   14  A    between atoms: _29  and  _30
REMARK   15  A    between atoms: _35  and  _37
REMARK   16  A    between atoms: _37  and  _38
REMARK   17  A    between atoms: _37  and  _40
REMARK   18  A    between atoms: _40  and  _41
REMARK   19  A    between atoms: _41  and  _42
REMARK   20  A    between atoms: _42  and  _43
REMARK   21  A    between atoms: _52  and  _54
REMARK   22  A    between atoms: _54  and  _55
REMARK   23  A    between atoms: _54  and  _57
REMARK   24  A    between atoms: _57  and  _58
REMARK   25  A    between atoms: _61  and  _63
REMARK   26  A    between atoms: _63  and  _64
REMARK   27  A    between atoms: _63  and  _66
REMARK   28  A    between atoms: _66  and  _67
REMARK   29  A    between atoms: _72  and  _74
REMARK   30  A    between atoms: _74  and  _75
REMARK   31  A    between atoms: _74  and  _77
REMARK   32  A    between atoms: _77  and  _78
REMARK   33  A    between atoms: _81  and  _83
REMARK   34  A    between atoms: _83  and  _84
REMARK   35  A    between atoms: _83  and  _86
REMARK   36  A    between atoms: _86  and  _87
REMARK   37  A    between atoms: _92  and  _94
REMARK   38  A    between atoms: _94  and  _95
REMARK   39  A    between atoms: _94  and  _97
REMARK   40  A    between atoms: _97  and  _98
REMARK   41  A    between atoms: _98  and  _99
REMARK   42  A    between atoms: _99  and  _100
REMARK   43  A    between atoms: _109  and  _111
REMARK   44  A    between atoms: _111  and  _112
REMARK   45  A    between atoms: _111  and  _114
REMARK   46  A    between atoms: _114  and  _115
REMARK   47  A    between atoms: _120  and  _122
REMARK   48  A    between atoms: _122  and  _123
REMARK   49  A    between atoms: _125  and  _127
REMARK   50  A    between atoms: _127  and  _128
REMARK   51  A    between atoms: _127  and  _130
REMARK   52  A    between atoms: _130  and  _131
REMARK   53  A    between atoms: _134  and  _136
REMARK   54  A    between atoms: _136  and  _137
REMARK   55  A    between atoms: _136  and  _139
REMARK   56  A    between atoms: _141  and  _143
REMARK   57  A    between atoms: _143  and  _144
REMARK   58  A    between atoms: _143  and  _146
REMARK   59  A    between atoms: _146  and  _147
REMARK   60  A    between atoms: _147  and  _148
REMARK   61  A    between atoms: _148  and  _149
REMARK   62  A    between atoms: _158  and  _160
REMARK   63  A    between atoms: _160  and  _161
REMARK   64  A    between atoms: _160  and  _163
REMARK   65  A    between atoms: _163  and  _164
REMARK   66  A    between atoms: _164  and  _165
REMARK   67  A    between atoms: _167  and  _169
REMARK   68  A    between atoms: _169  and  _170
REMARK   69  A    between atoms: _169  and  _172
REMARK   70  A    between atoms: _172  and  _173
REMARK   71  A    between atoms: _176  and  _178
REMARK   72  A    between atoms: _178  and  _179
REMARK   73  A    between atoms: _178  and  _181
REMARK   74  A    between atoms: _181  and  _182
REMARK   75  A    between atoms: _185  and  _187
REMARK   76  A    between atoms: _187  and  _188
REMARK   77  A    between atoms: _190  and  _192
REMARK   78  A    between atoms: _192  and  _193
REMARK   79  A    between atoms: _192  and  _195
REMARK   80  A    between atoms: _195  and  _196
REMARK   81  A    between atoms: _196  and  _197
REMARK   82  A    between atoms: _200  and  _202
REMARK   83  A    between atoms: _202  and  _203
REMARK   84  A    between atoms: _202  and  _205
REMARK   85  A    between atoms: _208  and  _210
REMARK   86  A    between atoms: _210  and  _211
REMARK   87  A    between atoms: _210  and  _213
REMARK   88  A    between atoms: _213  and  _214
REMARK   89  A    between atoms: _217  and  _219
REMARK   90  A    between atoms: _219  and  _220
REMARK   91  A    between atoms: _219  and  _222
REMARK   92  A    between atoms: _222  and  _223
REMARK   93  A    between atoms: _226  and  _228
REMARK   94  A    between atoms: _228  and  _229
REMARK   95  A    between atoms: _232  and  _234
REMARK   96  A    between atoms: _234  and  _235
REMARK   97  A    between atoms: _234  and  _237
REMARK   98  A    between atoms: _240  and  _242
REMARK   99  A    between atoms: _242  and  _243
REMARK  100  A    between atoms: _242  and  _245
REMARK  101  A    between atoms: _245  and  _246
REMARK  102  A    between atoms: _246  and  _247
REMARK  103  A    between atoms: _250  and  _252
REMARK  104  A    between atoms: _252  and  _253
REMARK  105  A    between atoms: _256  and  _258
REMARK  106  A    between atoms: _258  and  _259
REMARK  107  A    between atoms: _262  and  _264
REMARK  108  A    between atoms: _264  and  _265
REMARK  109  A    between atoms: _264  and  _267
REMARK  110  A    between atoms: _267  and  _268
REMARK  111  A    between atoms: _270  and  _272
REMARK  112  A    between atoms: _272  and  _273
REMARK  113  A    between atoms: _272  and  _275
REMARK  114  A    between atoms: _275  and  _276
REMARK  115  A    between atoms: _286  and  _288
REMARK  116  A    between atoms: _288  and  _289
REMARK  117  A    between atoms: _292  and  _293
REMARK  118  A    between atoms: _298  and  _300
REMARK  119  A    between atoms: _300  and  _301
REMARK  120  A    between atoms: _300  and  _303
REMARK  121  A    between atoms: _303  and  _304
REMARK  122  A    between atoms: _304  and  _305
REMARK  123  A    between atoms: _308  and  _310
REMARK  124  A    between atoms: _310  and  _311
REMARK  125  A    between atoms: _310  and  _313
REMARK  126  A    between atoms: _313  and  _314
REMARK  127  A    between atoms: _314  and  _315
REMARK  128  A    between atoms: _315  and  CA_629
REMARK  129  A    between atoms: _317  and  _319
REMARK  130  A    between atoms: _319  and  _320
REMARK  131  A    between atoms: _319  and  _322
REMARK  132  A    between atoms: _322  and  _323
REMARK  133  A    between atoms: _326  and  _328
REMARK  134  A    between atoms: _328  and  _329
REMARK  135  A    between atoms: _328  and  _331
REMARK  136  A    between atoms: _331  and  _332
REMARK  137  A    between atoms: _335  and  _337
REMARK  138  A    between atoms: _337  and  _338
REMARK  139  A    between atoms: _337  and  _340
REMARK  140  A    between atoms: _343  and  _345
REMARK  141  A    between atoms: _345  and  _346
REMARK  142  A    between atoms: _345  and  _348
REMARK  143  A    between atoms: _348  and  _349
REMARK  144  A    between atoms: _352  and  _354
REMARK  145  A    between atoms: _354  and  _355
REMARK  146  A    between atoms: _358  and  _359
REMARK  147  A    between atoms: _364  and  _366
REMARK  148  A    between atoms: _366  and  _367
REMARK  149  A    between atoms: _370  and  _372
REMARK  150  A    between atoms: _372  and  _373
REMARK  151  A    between atoms: _372  and  _375
REMARK  152  A    between atoms: _375  and  _376
REMARK  153  A    between atoms: _376  and  _377
REMARK  154  A    between atoms: _377  and  _378
REMARK  155  A    between atoms: _387  and  _389
REMARK  156  A    between atoms: _389  and  _390
REMARK  157  A    between atoms: _389  and  _392
REMARK  158  A    between atoms: _392  and  _393
REMARK  159  A    between atoms: _396  and  _398
REMARK  160  A    between atoms: _398  and  _399
REMARK  161  A    between atoms: _402  and  _404
REMARK  162  A    between atoms: _404  and  _405
REMARK  163  A    between atoms: _404  and  _407
REMARK  164  A    between atoms: _407  and  _408
REMARK  165  A    between atoms: _408  and  _409
REMARK  166  A    between atoms: _412  and  _414
REMARK  167  A    between atoms: _414  and  _415
REMARK  168  A    between atoms: _414  and  _417
REMARK  169  A    between atoms: _417  and  _418
REMARK  170  A    between atoms: _428  and  _430
REMARK  171  A    between atoms: _430  and  _431
REMARK  172  A    between atoms: _434  and  _436
REMARK  173  A    between atoms: _436  and  _437
REMARK  174  A    between atoms: _436  and  _439
REMARK  175  A    between atoms: _439  and  _440
REMARK  176  A    between atoms: _442  and  _444
REMARK  177  A    between atoms: _444  and  _445
REMARK  178  A    between atoms: _447  and  _449
REMARK  179  A    between atoms: _449  and  _450
REMARK  180  A    between atoms: _449  and  _452
REMARK  181  A    between atoms: _452  and  _453
REMARK  182  A    between atoms: _458  and  _460
REMARK  183  A    between atoms: _460  and  _461
REMARK  184  A    between atoms: _463  and  _465
REMARK  185  A    between atoms: _465  and  _466
REMARK  186  A    between atoms: _465  and  _468
REMARK  187  A    between atoms: _468  and  _469
REMARK  188  A    between atoms: _469  and  _471
REMARK  189  A    between atoms: _471  and  CA_629
REMARK  190  A    between atoms: _472  and  _474
REMARK  191  A    between atoms: _474  and  _475
REMARK  192  A    between atoms: _474  and  _477
REMARK  193  A    between atoms: _477  and  _478
REMARK  194  A    between atoms: _480  and  _482
REMARK  195  A    between atoms: _482  and  _483
REMARK  196  A    between atoms: _482  and  _485
REMARK  197  A    between atoms: _487  and  _489
REMARK  198  A    between atoms: _489  and  _490
REMARK  199  A    between atoms: _489  and  _492
REMARK  200  A    between atoms: _494  and  _496
REMARK  201  A    between atoms: _496  and  _497
REMARK  202  A    between atoms: _496  and  _499
REMARK  203  A    between atoms: _499  and  _500
REMARK  204  A    between atoms: _503  and  _505
REMARK  205  A    between atoms: _505  and  _506
REMARK  206  A    between atoms: _508  and  _510
REMARK  207  A    between atoms: _510  and  _511
REMARK  208  A    between atoms: _510  and  _513
REMARK  209  A    between atoms: _513  and  _514
REMARK  210  A    between atoms: _519  and  _520
REMARK  211  A    between atoms: _522  and  _524
REMARK  212  A    between atoms: _524  and  _525
REMARK  213  A    between atoms: _524  and  _527
REMARK  214  A    between atoms: _527  and  _528
REMARK  215  A    between atoms: _531  and  _533
REMARK  216  A    between atoms: _533  and  _534
REMARK  217  A    between atoms: _533  and  _536
REMARK  218  A    between atoms: _536  and  _537
REMARK  219  A    between atoms: _542  and  _544
REMARK  220  A    between atoms: _544  and  _545
REMARK  221  A    between atoms: _544  and  _547
REMARK  222  A    between atoms: _547  and  _548
REMARK  223  A    between atoms: _551  and  _553
REMARK  224  A    between atoms: _553  and  _554
REMARK  225  A    between atoms: _553  and  _556
REMARK  226  A    between atoms: _556  and  _557
REMARK  227  A    between atoms: _559  and  _561
REMARK  228  A    between atoms: _561  and  _562
REMARK  229  A    between atoms: _561  and  _564
REMARK  230  A    between atoms: _564  and  _565
REMARK  231  A    between atoms: _568  and  _570
REMARK  232  A    between atoms: _570  and  _571
REMARK  233  A    between atoms: _570  and  _573
REMARK  234  A    between atoms: _573  and  _574
REMARK  235  A    between atoms: _574  and  _575
REMARK  236  A    between atoms: _578  and  _580
REMARK  237  A    between atoms: _580  and  _581
REMARK  238  A    between atoms: _580  and  _583
REMARK  239  A    between atoms: _583  and  _584
REMARK  240  A    between atoms: _587  and  _589
REMARK  241  A    between atoms: _589  and  _590
REMARK  242  A    between atoms: _592  and  _594
REMARK  243  A    between atoms: _594  and  _595
REMARK  244  A    between atoms: _594  and  _597
REMARK  245  A    between atoms: _597  and  _598
REMARK  246  A    between atoms: _601  and  _603
REMARK  247  A    between atoms: _603  and  _604
REMARK  248  A    between atoms: _603  and  _606
REMARK  249  A    between atoms: _606  and  _607
REMARK  250  A    between atoms: _609  and  _611
REMARK  251  A    between atoms: _611  and  _612
REMARK  252  A    between atoms: _615  and  _617
REMARK  253  A    between atoms: _617  and  _618
REMARK  254  A    between atoms: _617  and  _620
REMARK  255  A    between atoms: _620  and  _621
REMARK  256  A    between atoms: _623  and  _625
REMARK  257  A    between atoms: _625  and  _626
REMARK                            x       y       z     vdW  Elec       q    Type
REMARK                         _______ _______ _______ _____ _____    ______ ____
ROOT
ATOM      1  O   HOH     1      23.817  21.004  -9.490  0.00  0.00    +0.000 OA
ENDROOT
TORSDOF 0
REMARK  Name = ../refined-set-2016/4omc/4omc_pocket.pdb
REMARK  257 active torsions:
REMARK  status: ('A' for Active; 'I' for Inactive)
REMARK    1  A    between atoms: _1  and  _3
REMARK    2  A    between atoms: _3  and  _4
REMARK    3  A    between atoms: _3  and  _6
REMARK    4  A    between atoms: _6  and  _7
REMARK    5  A    between atoms: _10  and  _12
REMARK    6  A    between atoms: _12  and  _13
REMARK    7  A    between atoms: _12  and  _15
REMARK    8  A    between atoms: _15  and  _16
REMARK    9  A    between atoms: _19  and  _21
REMARK   10  A    between atoms: _21  and  _22
REMARK   11  A    between atoms: _24  and  _26
REMARK   12  A    between atoms: _26  and  _27
REMARK   13  A    between atoms: _26  and  _29
REMARK   14  A    between atoms: _29  and  _30
REMARK   15  A    between atoms: _35  and  _37
REMARK   16  A    between atoms: _37  and  _38
REMARK   17  A    between atoms: _37  and  _40
REMARK   18  A    between atoms: _40  and  _41
REMARK   19  A    between atoms: _41  and  _42
REMARK   20  A    between atoms: _42  and  _43
REMARK   21  A    between atoms: _52  and  _54
REMARK   22  A    between atoms: _54  and  _55
REMARK   23  A    between atoms: _54  and  _57
REMARK   24  A    between atoms: _57  and  _58
REMARK   25  A    between atoms: _61  and  _63
REMARK   26  A    between atoms: _63  and  _64
REMARK   27  A    between atoms: _63  and  _66
REMARK   28  A    between atoms: _66  and  _67
REMARK   29  A    between atoms: _72  and  _74
REMARK   30  A    between atoms: _74  and  _75
REMARK   31  A    between atoms: _74  and  _77
REMARK   32  A    between atoms: _77  and  _78
REMARK   33  A    between atoms: _81  and  _83
REMARK   34  A    between atoms: _83  and  _84
REMARK   35  A    between atoms: _83  and  _86
REMARK   36  A    between atoms: _86  and  _87
REMARK   37  A    between atoms: _92  and  _94
REMARK   38  A    between atoms: _94  and  _95
REMARK   39  A    between atoms: _94  and  _97
REMARK   40  A    between atoms: _97  and  _98
REMARK   41  A    between atoms: _98  and  _99
REMARK   42  A    between atoms: _99  and  _100
REMARK   43  A    between atoms: _109  and  _111
REMARK   44  A    between atoms: _111  and  _112
REMARK   45  A    between atoms: _111  and  _114
REMARK   46  A    between atoms: _114  and  _115
REMARK   47  A    between atoms: _120  and  _122
REMARK   48  A    between atoms: _122  and  _123
REMARK   49  A    between atoms: _125  and  _127
REMARK   50  A    between atoms: _127  and  _128
REMARK   51  A    between atoms: _127  and  _130
REMARK   52  A    between atoms: _130  and  _131
REMARK   53  A    between atoms: _134  and  _136
REMARK   54  A    between atoms: _136  and  _137
REMARK   55  A    between atoms: _136  and  _139
REMARK   56  A    between atoms: _141  and  _143
REMARK   57  A    between atoms: _143  and  _144
REMARK   58  A    between atoms: _143  and  _146
REMARK   59  A    between atoms: _146  and  _147
REMARK   60  A    between atoms: _147  and  _148
REMARK   61  A    between atoms: _148  and  _149
REMARK   62  A    between atoms: _158  and  _160
REMARK   63  A    between atoms: _160  and  _161
REMARK   64  A    between atoms: _160  and  _163
REMARK   65  A    between atoms: _163  and  _164
REMARK   66  A    between atoms: _164  and  _165
REMARK   67  A    between atoms: _167  and  _169
REMARK   68  A    between atoms: _169  and  _170
REMARK   69  A    between atoms: _169  and  _172
REMARK   70  A    between atoms: _172  and  _173
REMARK   71  A    between atoms: _176  and  _178
REMARK   72  A    between atoms: _178  and  _179
REMARK   73  A    between atoms: _178  and  _181
REMARK   74  A    between atoms: _181  and  _182
REMARK   75  A    between atoms: _185  and  _187
REMARK   76  A    between atoms: _187  and  _188
REMARK   77  A    between atoms: _190  and  _192
REMARK   78  A    between atoms: _192  and  _193
REMARK   79  A    between atoms: _192  and  _195
REMARK   80  A    between atoms: _195  and  _196
REMARK   81  A    between atoms: _196  and  _197
REMARK   82  A    between atoms: _200  and  _202
REMARK   83  A    between atoms: _202  and  _203
REMARK   84  A    between atoms: _202  and  _205
REMARK   85  A    between atoms: _208  and  _210
REMARK   86  A    between atoms: _210  and  _211
REMARK   87  A    between atoms: _210  and  _213
REMARK   88  A    between atoms: _213  and  _214
REMARK   89  A    between atoms: _217  and  _219
REMARK   90  A    between atoms: _219  and  _220
REMARK   91  A    between atoms: _219  and  _222
REMARK   92  A    between atoms: _222  and  _223
REMARK   93  A    between atoms: _226  and  _228
REMARK   94  A    between atoms: _228  and  _229
REMARK   95  A    between atoms: _232  and  _234
REMARK   96  A    between atoms: _234  and  _235
REMARK   97  A    between atoms: _234  and  _237
REMARK   98  A    between atoms: _240  and  _242
REMARK   99  A    between atoms: _242  and  _243
REMARK  100  A    between atoms: _242  and  _245
REMARK  101  A    between atoms: _245  and  _246
REMARK  102  A    between atoms: _246  and  _247
REMARK  103  A    between atoms: _250  and  _252
REMARK  104  A    between atoms: _252  and  _253
REMARK  105  A    between atoms: _256  and  _258
REMARK  106  A    between atoms: _258  and  _259
REMARK  107  A    between atoms: _262  and  _264
REMARK  108  A    between atoms: _264  and  _265
REMARK  109  A    between atoms: _264  and  _267
REMARK  110  A    between atoms: _267  and  _268
REMARK  111  A    between atoms: _270  and  _272
REMARK  112  A    between atoms: _272  and  _273
REMARK  113  A    between atoms: _272  and  _275
REMARK  114  A    between atoms: _275  and  _276
REMARK  115  A    between atoms: _286  and  _288
REMARK  116  A    between atoms: _288  and  _289
REMARK  117  A    between atoms: _292  and  _293
REMARK  118  A    between atoms: _298  and  _300
REMARK  119  A    between atoms: _300  and  _301
REMARK  120  A    between atoms: _300  and  _303
REMARK  121  A    between atoms: _303  and  _304
REMARK  122  A    between atoms: _304  and  _305
REMARK  123  A    between atoms: _308  and  _310
REMARK  124  A    between atoms: _310  and  _311
REMARK  125  A    between atoms: _310  and  _313
REMARK  126  A    between atoms: _313  and  _314
REMARK  127  A    between atoms: _314  and  _315
REMARK  128  A    between atoms: _315  and  CA_629
REMARK  129  A    between atoms: _317  and  _319
REMARK  130  A    between atoms: _319  and  _320
REMARK  131  A    between atoms: _319  and  _322
REMARK  132  A    between atoms: _322  and  _323
REMARK  133  A    between atoms: _326  and  _328
REMARK  134  A    between atoms: _328  and  _329
REMARK  135  A    between atoms: _328  and  _331
REMARK  136  A    between atoms: _331  and  _332
REMARK  137  A    between atoms: _335  and  _337
REMARK  138  A    between atoms: _337  and  _338
REMARK  139  A    between atoms: _337  and  _340
REMARK  140  A    between atoms: _343  and  _345
REMARK  141  A    between atoms: _345  and  _346
REMARK  142  A    between atoms: _345  and  _348
REMARK  143  A    between atoms: _348  and  _349
REMARK  144  A    between atoms: _352  and  _354
REMARK  145  A    between atoms: _354  and  _355
REMARK  146  A    between atoms: _358  and  _359
REMARK  147  A    between atoms: _364  and  _366
REMARK  148  A    between atoms: _366  and  _367
REMARK  149  A    between atoms: _370  and  _372
REMARK  150  A    between atoms: _372  and  _373
REMARK  151  A    between atoms: _372  and  _375
REMARK  152  A    between atoms: _375  and  _376
REMARK  153  A    between atoms: _376  and  _377
REMARK  154  A    between atoms: _377  and  _378
REMARK  155  A    between atoms: _387  and  _389
REMARK  156  A    between atoms: _389  and  _390
REMARK  157  A    between atoms: _389  and  _392
REMARK  158  A    between atoms: _392  and  _393
REMARK  159  A    between atoms: _396  and  _398
REMARK  160  A    between atoms: _398  and  _399
REMARK  161  A    between atoms: _402  and  _404
REMARK  162  A    between atoms: _404  and  _405
REMARK  163  A    between atoms: _404  and  _407
REMARK  164  A    between atoms: _407  and  _408
REMARK  165  A    between atoms: _408  and  _409
REMARK  166  A    between atoms: _412  and  _414
REMARK  167  A    between atoms: _414  and  _415
REMARK  168  A    between atoms: _414  and  _417
REMARK  169  A    between atoms: _417  and  _418
REMARK  170  A    between atoms: _428  and  _430
REMARK  171  A    between atoms: _430  and  _431
REMARK  172  A    between atoms: _434  and  _436
REMARK  173  A    between atoms: _436  and  _437
REMARK  174  A    between atoms: _436  and  _439
REMARK  175  A    between atoms: _439  and  _440
REMARK  176  A    between atoms: _442  and  _444
REMARK  177  A    between atoms: _444  and  _445
REMARK  178  A    between atoms: _447  and  _449
REMARK  179  A    between atoms: _449  and  _450
REMARK  180  A    between atoms: _449  and  _452
REMARK  181  A    between atoms: _452  and  _453
REMARK  182  A    between atoms: _458  and  _460
REMARK  183  A    between atoms: _460  and  _461
REMARK  184  A    between atoms: _463  and  _465
REMARK  185  A    between atoms: _465  and  _466
REMARK  186  A    between atoms: _465  and  _468
REMARK  187  A    between atoms: _468  and  _469
REMARK  188  A    between atoms: _469  and  _471
REMARK  189  A    between atoms: _471  and  CA_629
REMARK  190  A    between atoms: _472  and  _474
REMARK  191  A    between atoms: _474  and  _475
REMARK  192  A    between atoms: _474  and  _477
REMARK  193  A    between atoms: _477  and  _478
REMARK  194  A    between atoms: _480  and  _482
REMARK  195  A    between atoms: _482  and  _483
REMARK  196  A    between atoms: _482  and  _485
REMARK  197  A    between atoms: _487  and  _489
REMARK  198  A    between atoms: _489  and  _490
REMARK  199  A    between atoms: _489  and  _492
REMARK  200  A    between atoms: _494  and  _496
REMARK  201  A    between atoms: _496  and  _497
REMARK  202  A    between atoms: _496  and  _499
REMARK  203  A    between atoms: _499  and  _500
REMARK  204  A    between atoms: _503  and  _505
REMARK  205  A    between atoms: _505  and  _506
REMARK  206  A    between atoms: _508  and  _510
REMARK  207  A    between atoms: _510  and  _511
REMARK  208  A    between atoms: _510  and  _513
REMARK  209  A    between atoms: _513  and  _514
REMARK  210  A    between atoms: _519  and  _520
REMARK  211  A    between atoms: _522  and  _524
REMARK  212  A    between atoms: _524  and  _525
REMARK  213  A    between atoms: _524  and  _527
REMARK  214  A    between atoms: _527  and  _528
REMARK  215  A    between atoms: _531  and  _533
REMARK  216  A    between atoms: _533  and  _534
REMARK  217  A    between atoms: _533  and  _536
REMARK  218  A    between atoms: _536  and  _537
REMARK  219  A    between atoms: _542  and  _544
REMARK  220  A    between atoms: _544  and  _545
REMARK  221  A    between atoms: _544  and  _547
REMARK  222  A    between atoms: _547  and  _548
REMARK  223  A    between atoms: _551  and  _553
REMARK  224  A    between atoms: _553  and  _554
REMARK  225  A    between atoms: _553  and  _556
REMARK  226  A    between atoms: _556  and  _557
REMARK  227  A    between atoms: _559  and  _561
REMARK  228  A    between atoms: _561  and  _562
REMARK  229  A    between atoms: _561  and  _564
REMARK  230  A    between atoms: _564  and  _565
REMARK  231  A    between atoms: _568  and  _570
REMARK  232  A    between atoms: _570  and  _571
REMARK  233  A    between atoms: _570  and  _573
REMARK  234  A    between atoms: _573  and  _574
REMARK  235  A    between atoms: _574  and  _575
REMARK  236  A    between atoms: _578  and  _580
REMARK  237  A    between atoms: _580  and  _581
REMARK  238  A    between atoms: _580  and  _583
REMARK  239  A    between atoms: _583  and  _584
REMARK  240  A    between atoms: _587  and  _589
REMARK  241  A    between atoms: _589  and  _590
REMARK  242  A    between atoms: _592  and  _594
REMARK  243  A    between atoms: _594  and  _595
REMARK  244  A    between atoms: _594  and  _597
REMARK  245  A    between atoms: _597  and  _598
REMARK  246  A    between atoms: _601  and  _603
REMARK  247  A    between atoms: _603  and  _604
REMARK  248  A    between atoms: _603  and  _606
REMARK  249  A    between atoms: _606  and  _607
REMARK  250  A    between atoms: _609  and  _611
REMARK  251  A    between atoms: _611  and  _612
REMARK  252  A    between atoms: _615  and  _617
REMARK  253  A    between atoms: _617  and  _618
REMARK  254  A    between atoms: _617  and  _620
REMARK  255  A    between atoms: _620  and  _621
REMARK  256  A    between atoms: _623  and  _625
REMARK  257  A    between atoms: _625  and  _626
REMARK                            x       y       z     vdW  Elec       q    Type
REMARK                         _______ _______ _______ _____ _____    ______ ____
ROOT
ATOM      1  O   HOH     1      32.217  32.718  -5.481  0.00  0.00    +0.000 OA
ENDROOT
TORSDOF 0
REMARK  Name = ../refined-set-2016/4omc/4omc_pocket.pdb
REMARK  257 active torsions:
REMARK  status: ('A' for Active; 'I' for Inactive)
REMARK    1  A    between atoms: _1  and  _3
REMARK    2  A    between atoms: _3  and  _4
REMARK    3  A    between atoms: _3  and  _6
REMARK    4  A    between atoms: _6  and  _7
REMARK    5  A    between atoms: _10  and  _12
REMARK    6  A    between atoms: _12  and  _13
REMARK    7  A    between atoms: _12  and  _15
REMARK    8  A    between atoms: _15  and  _16
REMARK    9  A    between atoms: _19  and  _21
REMARK   10  A    between atoms: _21  and  _22
REMARK   11  A    between atoms: _24  and  _26
REMARK   12  A    between atoms: _26  and  _27
REMARK   13  A    between atoms: _26  and  _29
REMARK   14  A    between atoms: _29  and  _30
REMARK   15  A    between atoms: _35  and  _37
REMARK   16  A    between atoms: _37  and  _38
REMARK   17  A    between atoms: _37  and  _40
REMARK   18  A    between atoms: _40  and  _41
REMARK   19  A    between atoms: _41  and  _42
REMARK   20  A    between atoms: _42  and  _43
REMARK   21  A    between atoms: _52  and  _54
REMARK   22  A    between atoms: _54  and  _55
REMARK   23  A    between atoms: _54  and  _57
REMARK   24  A    between atoms: _57  and  _58
REMARK   25  A    between atoms: _61  and  _63
REMARK   26  A    between atoms: _63  and  _64
REMARK   27  A    between atoms: _63  and  _66
REMARK   28  A    between atoms: _66  and  _67
REMARK   29  A    between atoms: _72  and  _74
REMARK   30  A    between atoms: _74  and  _75
REMARK   31  A    between atoms: _74  and  _77
REMARK   32  A    between atoms: _77  and  _78
REMARK   33  A    between atoms: _81  and  _83
REMARK   34  A    between atoms: _83  and  _84
REMARK   35  A    between atoms: _83  and  _86
REMARK   36  A    between atoms: _86  and  _87
REMARK   37  A    between atoms: _92  and  _94
REMARK   38  A    between atoms: _94  and  _95
REMARK   39  A    between atoms: _94  and  _97
REMARK   40  A    between atoms: _97  and  _98
REMARK   41  A    between atoms: _98  and  _99
REMARK   42  A    between atoms: _99  and  _100
REMARK   43  A    between atoms: _109  and  _111
REMARK   44  A    between atoms: _111  and  _112
REMARK   45  A    between atoms: _111  and  _114
REMARK   46  A    between atoms: _114  and  _115
REMARK   47  A    between atoms: _120  and  _122
REMARK   48  A    between atoms: _122  and  _123
REMARK   49  A    between atoms: _125  and  _127
REMARK   50  A    between atoms: _127  and  _128
REMARK   51  A    between atoms: _127  and  _130
REMARK   52  A    between atoms: _130  and  _131
REMARK   53  A    between atoms: _134  and  _136
REMARK   54  A    between atoms: _136  and  _137
REMARK   55  A    between atoms: _136  and  _139
REMARK   56  A    between atoms: _141  and  _143
REMARK   57  A    between atoms: _143  and  _144
REMARK   58  A    between atoms: _143  and  _146
REMARK   59  A    between atoms: _146  and  _147
REMARK   60  A    between atoms: _147  and  _148
REMARK   61  A    between atoms: _148  and  _149
REMARK   62  A    between atoms: _158  and  _160
REMARK   63  A    between atoms: _160  and  _161
REMARK   64  A    between atoms: _160  and  _163
REMARK   65  A    between atoms: _163  and  _164
REMARK   66  A    between atoms: _164  and  _165
REMARK   67  A    between atoms: _167  and  _169
REMARK   68  A    between atoms: _169  and  _170
REMARK   69  A    between atoms: _169  and  _172
REMARK   70  A    between atoms: _172  and  _173
REMARK   71  A    between atoms: _176  and  _178
REMARK   72  A    between atoms: _178  and  _179
REMARK   73  A    between atoms: _178  and  _181
REMARK   74  A    between atoms: _181  and  _182
REMARK   75  A    between atoms: _185  and  _187
REMARK   76  A    between atoms: _187  and  _188
REMARK   77  A    between atoms: _190  and  _192
REMARK   78  A    between atoms: _192  and  _193
REMARK   79  A    between atoms: _192  and  _195
REMARK   80  A    between atoms: _195  and  _196
REMARK   81  A    between atoms: _196  and  _197
REMARK   82  A    between atoms: _200  and  _202
REMARK   83  A    between atoms: _202  and  _203
REMARK   84  A    between atoms: _202  and  _205
REMARK   85  A    between atoms: _208  and  _210
REMARK   86  A    between atoms: _210  and  _211
REMARK   87  A    between atoms: _210  and  _213
REMARK   88  A    between atoms: _213  and  _214
REMARK   89  A    between atoms: _217  and  _219
REMARK   90  A    between atoms: _219  and  _220
REMARK   91  A    between atoms: _219  and  _222
REMARK   92  A    between atoms: _222  and  _223
REMARK   93  A    between atoms: _226  and  _228
REMARK   94  A    between atoms: _228  and  _229
REMARK   95  A    between atoms: _232  and  _234
REMARK   96  A    between atoms: _234  and  _235
REMARK   97  A    between atoms: _234  and  _237
REMARK   98  A    between atoms: _240  and  _242
REMARK   99  A    between atoms: _242  and  _243
REMARK  100  A    between atoms: _242  and  _245
REMARK  101  A    between atoms: _245  and  _246
REMARK  102  A    between atoms: _246  and  _247
REMARK  103  A    between atoms: _250  and  _252
REMARK  104  A    between atoms: _252  and  _253
REMARK  105  A    between atoms: _256  and  _258
REMARK  106  A    between atoms: _258  and  _259
REMARK  107  A    between atoms: _262  and  _264
REMARK  108  A    between atoms: _264  and  _265
REMARK  109  A    between atoms: _264  and  _267
REMARK  110  A    between atoms: _267  and  _268
REMARK  111  A    between atoms: _270  and  _272
REMARK  112  A    between atoms: _272  and  _273
REMARK  113  A    between atoms: _272  and  _275
REMARK  114  A    between atoms: _275  and  _276
REMARK  115  A    between atoms: _286  and  _288
REMARK  116  A    between atoms: _288  and  _289
REMARK  117  A    between atoms: _292  and  _293
REMARK  118  A    between atoms: _298  and  _300
REMARK  119  A    between atoms: _300  and  _301
REMARK  120  A    between atoms: _300  and  _303
REMARK  121  A    between atoms: _303  and  _304
REMARK  122  A    between atoms: _304  and  _305
REMARK  123  A    between atoms: _308  and  _310
REMARK  124  A    between atoms: _310  and  _311
REMARK  125  A    between atoms: _310  and  _313
REMARK  126  A    between atoms: _313  and  _314
REMARK  127  A    between atoms: _314  and  _315
REMARK  128  A    between atoms: _315  and  CA_629
REMARK  129  A    between atoms: _317  and  _319
REMARK  130  A    between atoms: _319  and  _320
REMARK  131  A    between atoms: _319  and  _322
REMARK  132  A    between atoms: _322  and  _323
REMARK  133  A    between atoms: _326  and  _328
REMARK  134  A    between atoms: _328  and  _329
REMARK  135  A    between atoms: _328  and  _331
REMARK  136  A    between atoms: _331  and  _332
REMARK  137  A    between atoms: _335  and  _337
REMARK  138  A    between atoms: _337  and  _338
REMARK  139  A    between atoms: _337  and  _340
REMARK  140  A    between atoms: _343  and  _345
REMARK  141  A    between atoms: _345  and  _346
REMARK  142  A    between atoms: _345  and  _348
REMARK  143  A    between atoms: _348  and  _349
REMARK  144  A    between atoms: _352  and  _354
REMARK  145  A    between atoms: _354  and  _355
REMARK  146  A    between atoms: _358  and  _359
REMARK  147  A    between atoms: _364  and  _366
REMARK  148  A    between atoms: _366  and  _367
REMARK  149  A    between atoms: _370  and  _372
REMARK  150  A    between atoms: _372  and  _373
REMARK  151  A    between atoms: _372  and  _375
REMARK  152  A    between atoms: _375  and  _376
REMARK  153  A    between atoms: _376  and  _377
REMARK  154  A    between atoms: _377  and  _378
REMARK  155  A    between atoms: _387  and  _389
REMARK  156  A    between atoms: _389  and  _390
REMARK  157  A    between atoms: _389  and  _392
REMARK  158  A    between atoms: _392  and  _393
REMARK  159  A    between atoms: _396  and  _398
REMARK  160  A    between atoms: _398  and  _399
REMARK  161  A    between atoms: _402  and  _404
REMARK  162  A    between atoms: _404  and  _405
REMARK  163  A    between atoms: _404  and  _407
REMARK  164  A    between atoms: _407  and  _408
REMARK  165  A    between atoms: _408  and  _409
REMARK  166  A    between atoms: _412  and  _414
REMARK  167  A    between atoms: _414  and  _415
REMARK  168  A    between atoms: _414  and  _417
REMARK  169  A    between atoms: _417  and  _418
REMARK  170  A    between atoms: _428  and  _430
REMARK  171  A    between atoms: _430  and  _431
REMARK  172  A    between atoms: _434  and  _436
REMARK  173  A    between atoms: _436  and  _437
REMARK  174  A    between atoms: _436  and  _439
REMARK  175  A    between atoms: _439  and  _440
REMARK  176  A    between atoms: _442  and  _444
REMARK  177  A    between atoms: _444  and  _445
REMARK  178  A    between atoms: _447  and  _449
REMARK  179  A    between atoms: _449  and  _450
REMARK  180  A    between atoms: _449  and  _452
REMARK  181  A    between atoms: _452  and  _453
REMARK  182  A    between atoms: _458  and  _460
REMARK  183  A    between atoms: _460  and  _461
REMARK  184  A    between atoms: _463  and  _465
REMARK  185  A    between atoms: _465  and  _466
REMARK  186  A    between atoms: _465  and  _468
REMARK  187  A    between atoms: _468  and  _469
REMARK  188  A    between atoms: _469  and  _471
REMARK  189  A    between atoms: _471  and  CA_629
REMARK  190  A    between atoms: _472  and  _474
REMARK  191  A    between atoms: _474  and  _475
REMARK  192  A    between atoms: _474  and  _477
REMARK  193  A    between atoms: _477  and  _478
REMARK  194  A    between atoms: _480  and  _482
REMARK  195  A    between atoms: _482  and  _483
REMARK  196  A    between atoms: _482  and  _485
REMARK  197  A    between atoms: _487  and  _489
REMARK  198  A    between atoms: _489  and  _490
REMARK  199  A    between atoms: _489  and  _492
REMARK  200  A    between atoms: _494  and  _496
REMARK  201  A    between atoms: _496  and  _497
REMARK  202  A    between atoms: _496  and  _499
REMARK  203  A    between atoms: _499  and  _500
REMARK  204  A    between atoms: _503  and  _505
REMARK  205  A    between atoms: _505  and  _506
REMARK  206  A    between atoms: _508  and  _510
REMARK  207  A    between atoms: _510  and  _511
REMARK  208  A    between atoms: _510  and  _513
REMARK  209  A    between atoms: _513  and  _514
REMARK  210  A    between atoms: _519  and  _520
REMARK  211  A    between atoms: _522  and  _524
REMARK  212  A    between atoms: _524  and  _525
REMARK  213  A    between atoms: _524  and  _527
REMARK  214  A    between atoms: _527  and  _528
REMARK  215  A    between atoms: _531  and  _533
REMARK  216  A    between atoms: _533  and  _534
REMARK  217  A    between atoms: _533  and  _536
REMARK  218  A    between atoms: _536  and  _537
REMARK  219  A    between atoms: _542  and  _544
REMARK  220  A    between atoms: _544  and  _545
REMARK  221  A    between atoms: _544  and  _547
REMARK  222  A    between atoms: _547  and  _548
REMARK  223  A    between atoms: _551  and  _553
REMARK  224  A    between atoms: _553  and  _554
REMARK  225  A    between atoms: _553  and  _556
REMARK  226  A    between atoms: _556  and  _557
REMARK  227  A    between atoms: _559  and  _561
REMARK  228  A    between atoms: _561  and  _562
REMARK  229  A    between atoms: _561  and  _564
REMARK  230  A    between atoms: _564  and  _565
REMARK  231  A    between atoms: _568  and  _570
REMARK  232  A    between atoms: _570  and  _571
REMARK  233  A    between atoms: _570  and  _573
REMARK  234  A    between atoms: _573  and  _574
REMARK  235  A    between atoms: _574  and  _575
REMARK  236  A    between atoms: _578  and  _580
REMARK  237  A    between atoms: _580  and  _581
REMARK  238  A    between atoms: _580  and  _583
REMARK  239  A    between atoms: _583  and  _584
REMARK  240  A    between atoms: _587  and  _589
REMARK  241  A    between atoms: _589  and  _590
REMARK  242  A    between atoms: _592  and  _594
REMARK  243  A    between atoms: _594  and  _595
REMARK  244  A    between atoms: _594  and  _597
REMARK  245  A    between atoms: _597  and  _598
REMARK  246  A    between atoms: _601  and  _603
REMARK  247  A    between atoms: _603  and  _604
REMARK  248  A    between atoms: _603  and  _606
REMARK  249  A    between atoms: _606  and  _607
REMARK  250  A    between atoms: _609  and  _611
REMARK  251  A    between atoms: _611  and  _612
REMARK  252  A    between atoms: _615  and  _617
REMARK  253  A    between atoms: _617  and  _618
REMARK  254  A    between atoms: _617  and  _620
REMARK  255  A    between atoms: _620  and  _621
REMARK  256  A    between atoms: _623  and  _625
REMARK  257  A    between atoms: _625  and  _626
REMARK                            x       y       z     vdW  Elec       q    Type
REMARK                         _______ _______ _______ _____ _____    ______ ____
ROOT
ATOM      1  O   HOH     1      21.608  32.500  -8.210  0.00  0.00    +0.000 OA
ENDROOT
TORSDOF 0
REMARK  Name = ../refined-set-2016/4omc/4omc_pocket.pdb
REMARK  257 active torsions:
REMARK  status: ('A' for Active; 'I' for Inactive)
REMARK    1  A    between atoms: _1  and  _3
REMARK    2  A    between atoms: _3  and  _4
REMARK    3  A    between atoms: _3  and  _6
REMARK    4  A    between atoms: _6  and  _7
REMARK    5  A    between atoms: _10  and  _12
REMARK    6  A    between atoms: _12  and  _13
REMARK    7  A    between atoms: _12  and  _15
REMARK    8  A    between atoms: _15  and  _16
REMARK    9  A    between atoms: _19  and  _21
REMARK   10  A    between atoms: _21  and  _22
REMARK   11  A    between atoms: _24  and  _26
REMARK   12  A    between atoms: _26  and  _27
REMARK   13  A    between atoms: _26  and  _29
REMARK   14  A    between atoms: _29  and  _30
REMARK   15  A    between atoms: _35  and  _37
REMARK   16  A    between atoms: _37  and  _38
REMARK   17  A    between atoms: _37  and  _40
REMARK   18  A    between atoms: _40  and  _41
REMARK   19  A    between atoms: _41  and  _42
REMARK   20  A    between atoms: _42  and  _43
REMARK   21  A    between atoms: _52  and  _54
REMARK   22  A    between atoms: _54  and  _55
REMARK   23  A    between atoms: _54  and  _57
REMARK   24  A    between atoms: _57  and  _58
REMARK   25  A    between atoms: _61  and  _63
REMARK   26  A    between atoms: _63  and  _64
REMARK   27  A    between atoms: _63  and  _66
REMARK   28  A    between atoms: _66  and  _67
REMARK   29  A    between atoms: _72  and  _74
REMARK   30  A    between atoms: _74  and  _75
REMARK   31  A    between atoms: _74  and  _77
REMARK   32  A    between atoms: _77  and  _78
REMARK   33  A    between atoms: _81  and  _83
REMARK   34  A    between atoms: _83  and  _84
REMARK   35  A    between atoms: _83  and  _86
REMARK   36  A    between atoms: _86  and  _87
REMARK   37  A    between atoms: _92  and  _94
REMARK   38  A    between atoms: _94  and  _95
REMARK   39  A    between atoms: _94  and  _97
REMARK   40  A    between atoms: _97  and  _98
REMARK   41  A    between atoms: _98  and  _99
REMARK   42  A    between atoms: _99  and  _100
REMARK   43  A    between atoms: _109  and  _111
REMARK   44  A    between atoms: _111  and  _112
REMARK   45  A    between atoms: _111  and  _114
REMARK   46  A    between atoms: _114  and  _115
REMARK   47  A    between atoms: _120  and  _122
REMARK   48  A    between atoms: _122  and  _123
REMARK   49  A    between atoms: _125  and  _127
REMARK   50  A    between atoms: _127  and  _128
REMARK   51  A    between atoms: _127  and  _130
REMARK   52  A    between atoms: _130  and  _131
REMARK   53  A    between atoms: _134  and  _136
REMARK   54  A    between atoms: _136  and  _137
REMARK   55  A    between atoms: _136  and  _139
REMARK   56  A    between atoms: _141  and  _143
REMARK   57  A    between atoms: _143  and  _144
REMARK   58  A    between atoms: _143  and  _146
REMARK   59  A    between atoms: _146  and  _147
REMARK   60  A    between atoms: _147  and  _148
REMARK   61  A    between atoms: _148  and  _149
REMARK   62  A    between atoms: _158  and  _160
REMARK   63  A    between atoms: _160  and  _161
REMARK   64  A    between atoms: _160  and  _163
REMARK   65  A    between atoms: _163  and  _164
REMARK   66  A    between atoms: _164  and  _165
REMARK   67  A    between atoms: _167  and  _169
REMARK   68  A    between atoms: _169  and  _170
REMARK   69  A    between atoms: _169  and  _172
REMARK   70  A    between atoms: _172  and  _173
REMARK   71  A    between atoms: _176  and  _178
REMARK   72  A    between atoms: _178  and  _179
REMARK   73  A    between atoms: _178  and  _181
REMARK   74  A    between atoms: _181  and  _182
REMARK   75  A    between atoms: _185  and  _187
REMARK   76  A    between atoms: _187  and  _188
REMARK   77  A    between atoms: _190  and  _192
REMARK   78  A    between atoms: _192  and  _193
REMARK   79  A    between atoms: _192  and  _195
REMARK   80  A    between atoms: _195  and  _196
REMARK   81  A    between atoms: _196  and  _197
REMARK   82  A    between atoms: _200  and  _202
REMARK   83  A    between atoms: _202  and  _203
REMARK   84  A    between atoms: _202  and  _205
REMARK   85  A    between atoms: _208  and  _210
REMARK   86  A    between atoms: _210  and  _211
REMARK   87  A    between atoms: _210  and  _213
REMARK   88  A    between atoms: _213  and  _214
REMARK   89  A    between atoms: _217  and  _219
REMARK   90  A    between atoms: _219  and  _220
REMARK   91  A    between atoms: _219  and  _222
REMARK   92  A    between atoms: _222  and  _223
REMARK   93  A    between atoms: _226  and  _228
REMARK   94  A    between atoms: _228  and  _229
REMARK   95  A    between atoms: _232  and  _234
REMARK   96  A    between atoms: _234  and  _235
REMARK   97  A    between atoms: _234  and  _237
REMARK   98  A    between atoms: _240  and  _242
REMARK   99  A    between atoms: _242  and  _243
REMARK  100  A    between atoms: _242  and  _245
REMARK  101  A    between atoms: _245  and  _246
REMARK  102  A    between atoms: _246  and  _247
REMARK  103  A    between atoms: _250  and  _252
REMARK  104  A    between atoms: _252  and  _253
REMARK  105  A    between atoms: _256  and  _258
REMARK  106  A    between atoms: _258  and  _259
REMARK  107  A    between atoms: _262  and  _264
REMARK  108  A    between atoms: _264  and  _265
REMARK  109  A    between atoms: _264  and  _267
REMARK  110  A    between atoms: _267  and  _268
REMARK  111  A    between atoms: _270  and  _272
REMARK  112  A    between atoms: _272  and  _273
REMARK  113  A    between atoms: _272  and  _275
REMARK  114  A    between atoms: _275  and  _276
REMARK  115  A    between atoms: _286  and  _288
REMARK  116  A    between atoms: _288  and  _289
REMARK  117  A    between atoms: _292  and  _293
REMARK  118  A    between atoms: _298  and  _300
REMARK  119  A    between atoms: _300  and  _301
REMARK  120  A    between atoms: _300  and  _303
REMARK  121  A    between atoms: _303  and  _304
REMARK  122  A    between atoms: _304  and  _305
REMARK  123  A    between atoms: _308  and  _310
REMARK  124  A    between atoms: _310  and  _311
REMARK  125  A    between atoms: _310  and  _313
REMARK  126  A    between atoms: _313  and  _314
REMARK  127  A    between atoms: _314  and  _315
REMARK  128  A    between atoms: _315  and  CA_629
REMARK  129  A    between atoms: _317  and  _319
REMARK  130  A    between atoms: _319  and  _320
REMARK  131  A    between atoms: _319  and  _322
REMARK  132  A    between atoms: _322  and  _323
REMARK  133  A    between atoms: _326  and  _328
REMARK  134  A    between atoms: _328  and  _329
REMARK  135  A    between atoms: _328  and  _331
REMARK  136  A    between atoms: _331  and  _332
REMARK  137  A    between atoms: _335  and  _337
REMARK  138  A    between atoms: _337  and  _338
REMARK  139  A    between atoms: _337  and  _340
REMARK  140  A    between atoms: _343  and  _345
REMARK  141  A    between atoms: _345  and  _346
REMARK  142  A    between atoms: _345  and  _348
REMARK  143  A    between atoms: _348  and  _349
REMARK  144  A    between atoms: _352  and  _354
REMARK  145  A    between atoms: _354  and  _355
REMARK  146  A    between atoms: _358  and  _359
REMARK  147  A    between atoms: _364  and  _366
REMARK  148  A    between atoms: _366  and  _367
REMARK  149  A    between atoms: _370  and  _372
REMARK  150  A    between atoms: _372  and  _373
REMARK  151  A    between atoms: _372  and  _375
REMARK  152  A    between atoms: _375  and  _376
REMARK  153  A    between atoms: _376  and  _377
REMARK  154  A    between atoms: _377  and  _378
REMARK  155  A    between atoms: _387  and  _389
REMARK  156  A    between atoms: _389  and  _390
REMARK  157  A    between atoms: _389  and  _392
REMARK  158  A    between atoms: _392  and  _393
REMARK  159  A    between atoms: _396  and  _398
REMARK  160  A    between atoms: _398  and  _399
REMARK  161  A    between atoms: _402  and  _404
REMARK  162  A    between atoms: _404  and  _405
REMARK  163  A    between atoms: _404  and  _407
REMARK  164  A    between atoms: _407  and  _408
REMARK  165  A    between atoms: _408  and  _409
REMARK  166  A    between atoms: _412  and  _414
REMARK  167  A    between atoms: _414  and  _415
REMARK  168  A    between atoms: _414  and  _417
REMARK  169  A    between atoms: _417  and  _418
REMARK  170  A    between atoms: _428  and  _430
REMARK  171  A    between atoms: _430  and  _431
REMARK  172  A    between atoms: _434  and  _436
REMARK  173  A    between atoms: _436  and  _437
REMARK  174  A    between atoms: _436  and  _439
REMARK  175  A    between atoms: _439  and  _440
REMARK  176  A    between atoms: _442  and  _444
REMARK  177  A    between atoms: _444  and  _445
REMARK  178  A    between atoms: _447  and  _449
REMARK  179  A    between atoms: _449  and  _450
REMARK  180  A    between atoms: _449  and  _452
REMARK  181  A    between atoms: _452  and  _453
REMARK  182  A    between atoms: _458  and  _460
REMARK  183  A    between atoms: _460  and  _461
REMARK  184  A    between atoms: _463  and  _465
REMARK  185  A    between atoms: _465  and  _466
REMARK  186  A    between atoms: _465  and  _468
REMARK  187  A    between atoms: _468  and  _469
REMARK  188  A    between atoms: _469  and  _471
REMARK  189  A    between atoms: _471  and  CA_629
REMARK  190  A    between atoms: _472  and  _474
REMARK  191  A    between atoms: _474  and  _475
REMARK  192  A    between atoms: _474  and  _477
REMARK  193  A    between atoms: _477  and  _478
REMARK  194  A    between atoms: _480  and  _482
REMARK  195  A    between atoms: _482  and  _483
REMARK  196  A    between atoms: _482  and  _485
REMARK  197  A    between atoms: _487  and  _489
REMARK  198  A    between atoms: _489  and  _490
REMARK  199  A    between atoms: _489  and  _492
REMARK  200  A    between atoms: _494  and  _496
REMARK  201  A    between atoms: _496  and  _497
REMARK  202  A    between atoms: _496  and  _499
REMARK  203  A    between atoms: _499  and  _500
REMARK  204  A    between atoms: _503  and  _505
REMARK  205  A    between atoms: _505  and  _506
REMARK  206  A    between atoms: _508  and  _510
REMARK  207  A    between atoms: _510  and  _511
REMARK  208  A    between atoms: _510  and  _513
REMARK  209  A    between atoms: _513  and  _514
REMARK  210  A    between atoms: _519  and  _520
REMARK  211  A    between atoms: _522  and  _524
REMARK  212  A    between atoms: _524  and  _525
REMARK  213  A    between atoms: _524  and  _527
REMARK  214  A    between atoms: _527  and  _528
REMARK  215  A    between atoms: _531  and  _533
REMARK  216  A    between atoms: _533  and  _534
REMARK  217  A    between atoms: _533  and  _536
REMARK  218  A    between atoms: _536  and  _537
REMARK  219  A    between atoms: _542  and  _544
REMARK  220  A    between atoms: _544  and  _545
REMARK  221  A    between atoms: _544  and  _547
REMARK  222  A    between atoms: _547  and  _548
REMARK  223  A    between atoms: _551  and  _553
REMARK  224  A    between atoms: _553  and  _554
REMARK  225  A    between atoms: _553  and  _556
REMARK  226  A    between atoms: _556  and  _557
REMARK  227  A    between atoms: _559  and  _561
REMARK  228  A    between atoms: _561  and  _562
REMARK  229  A    between atoms: _561  and  _564
REMARK  230  A    between atoms: _564  and  _565
REMARK  231  A    between atoms: _568  and  _570
REMARK  232  A    between atoms: _570  and  _571
REMARK  233  A    between atoms: _570  and  _573
REMARK  234  A    between atoms: _573  and  _574
REMARK  235  A    between atoms: _574  and  _575
REMARK  236  A    between atoms: _578  and  _580
REMARK  237  A    between atoms: _580  and  _581
REMARK  238  A    between atoms: _580  and  _583
REMARK  239  A    between atoms: _583  and  _584
REMARK  240  A    between atoms: _587  and  _589
REMARK  241  A    between atoms: _589  and  _590
REMARK  242  A    between atoms: _592  and  _594
REMARK  243  A    between atoms: _594  and  _595
REMARK  244  A    between atoms: _594  and  _597
REMARK  245  A    between atoms: _597  and  _598
REMARK  246  A    between atoms: _601  and  _603
REMARK  247  A    between atoms: _603  and  _604
REMARK  248  A    between atoms: _603  and  _606
REMARK  249  A    between atoms: _606  and  _607
REMARK  250  A    between atoms: _609  and  _611
REMARK  251  A    between atoms: _611  and  _612
REMARK  252  A    between atoms: _615  and  _617
REMARK  253  A    between atoms: _617  and  _618
REMARK  254  A    between atoms: _617  and  _620
REMARK  255  A    between atoms: _620  and  _621
REMARK  256  A    between atoms: _623  and  _625
REMARK  257  A    between atoms: _625  and  _626
REMARK                            x       y       z     vdW  Elec       q    Type
REMARK                         _______ _______ _______ _____ _____    ______ ____
ROOT
ATOM      1  O   HOH     1      29.060  25.246 -10.301  0.00  0.00    +0.000 OA
ENDROOT
TORSDOF 0
REMARK  Name = ../refined-set-2016/4omc/4omc_pocket.pdb
REMARK  257 active torsions:
REMARK  status: ('A' for Active; 'I' for Inactive)
REMARK    1  A    between atoms: _1  and  _3
REMARK    2  A    between atoms: _3  and  _4
REMARK    3  A    between atoms: _3  and  _6
REMARK    4  A    between atoms: _6  and  _7
REMARK    5  A    between atoms: _10  and  _12
REMARK    6  A    between atoms: _12  and  _13
REMARK    7  A    between atoms: _12  and  _15
REMARK    8  A    between atoms: _15  and  _16
REMARK    9  A    between atoms: _19  and  _21
REMARK   10  A    between atoms: _21  and  _22
REMARK   11  A    between atoms: _24  and  _26
REMARK   12  A    between atoms: _26  and  _27
REMARK   13  A    between atoms: _26  and  _29
REMARK   14  A    between atoms: _29  and  _30
REMARK   15  A    between atoms: _35  and  _37
REMARK   16  A    between atoms: _37  and  _38
REMARK   17  A    between atoms: _37  and  _40
REMARK   18  A    between atoms: _40  and  _41
REMARK   19  A    between atoms: _41  and  _42
REMARK   20  A    between atoms: _42  and  _43
REMARK   21  A    between atoms: _52  and  _54
REMARK   22  A    between atoms: _54  and  _55
REMARK   23  A    between atoms: _54  and  _57
REMARK   24  A    between atoms: _57  and  _58
REMARK   25  A    between atoms: _61  and  _63
REMARK   26  A    between atoms: _63  and  _64
REMARK   27  A    between atoms: _63  and  _66
REMARK   28  A    between atoms: _66  and  _67
REMARK   29  A    between atoms: _72  and  _74
REMARK   30  A    between atoms: _74  and  _75
REMARK   31  A    between atoms: _74  and  _77
REMARK   32  A    between atoms: _77  and  _78
REMARK   33  A    between atoms: _81  and  _83
REMARK   34  A    between atoms: _83  and  _84
REMARK   35  A    between atoms: _83  and  _86
REMARK   36  A    between atoms: _86  and  _87
REMARK   37  A    between atoms: _92  and  _94
REMARK   38  A    between atoms: _94  and  _95
REMARK   39  A    between atoms: _94  and  _97
REMARK   40  A    between atoms: _97  and  _98
REMARK   41  A    between atoms: _98  and  _99
REMARK   42  A    between atoms: _99  and  _100
REMARK   43  A    between atoms: _109  and  _111
REMARK   44  A    between atoms: _111  and  _112
REMARK   45  A    between atoms: _111  and  _114
REMARK   46  A    between atoms: _114  and  _115
REMARK   47  A    between atoms: _120  and  _122
REMARK   48  A    between atoms: _122  and  _123
REMARK   49  A    between atoms: _125  and  _127
REMARK   50  A    between atoms: _127  and  _128
REMARK   51  A    between atoms: _127  and  _130
REMARK   52  A    between atoms: _130  and  _131
REMARK   53  A    between atoms: _134  and  _136
REMARK   54  A    between atoms: _136  and  _137
REMARK   55  A    between atoms: _136  and  _139
REMARK   56  A    between atoms: _141  and  _143
REMARK   57  A    between atoms: _143  and  _144
REMARK   58  A    between atoms: _143  and  _146
REMARK   59  A    between atoms: _146  and  _147
REMARK   60  A    between atoms: _147  and  _148
REMARK   61  A    between atoms: _148  and  _149
REMARK   62  A    between atoms: _158  and  _160
REMARK   63  A    between atoms: _160  and  _161
REMARK   64  A    between atoms: _160  and  _163
REMARK   65  A    between atoms: _163  and  _164
REMARK   66  A    between atoms: _164  and  _165
REMARK   67  A    between atoms: _167  and  _169
REMARK   68  A    between atoms: _169  and  _170
REMARK   69  A    between atoms: _169  and  _172
REMARK   70  A    between atoms: _172  and  _173
REMARK   71  A    between atoms: _176  and  _178
REMARK   72  A    between atoms: _178  and  _179
REMARK   73  A    between atoms: _178  and  _181
REMARK   74  A    between atoms: _181  and  _182
REMARK   75  A    between atoms: _185  and  _187
REMARK   76  A    between atoms: _187  and  _188
REMARK   77  A    between atoms: _190  and  _192
REMARK   78  A    between atoms: _192  and  _193
REMARK   79  A    between atoms: _192  and  _195
REMARK   80  A    between atoms: _195  and  _196
REMARK   81  A    between atoms: _196  and  _197
REMARK   82  A    between atoms: _200  and  _202
REMARK   83  A    between atoms: _202  and  _203
REMARK   84  A    between atoms: _202  and  _205
REMARK   85  A    between atoms: _208  and  _210
REMARK   86  A    between atoms: _210  and  _211
REMARK   87  A    between atoms: _210  and  _213
REMARK   88  A    between atoms: _213  and  _214
REMARK   89  A    between atoms: _217  and  _219
REMARK   90  A    between atoms: _219  and  _220
REMARK   91  A    between atoms: _219  and  _222
REMARK   92  A    between atoms: _222  and  _223
REMARK   93  A    between atoms: _226  and  _228
REMARK   94  A    between atoms: _228  and  _229
REMARK   95  A    between atoms: _232  and  _234
REMARK   96  A    between atoms: _234  and  _235
REMARK   97  A    between atoms: _234  and  _237
REMARK   98  A    between atoms: _240  and  _242
REMARK   99  A    between atoms: _242  and  _243
REMARK  100  A    between atoms: _242  and  _245
REMARK  101  A    between atoms: _245  and  _246
REMARK  102  A    between atoms: _246  and  _247
REMARK  103  A    between atoms: _250  and  _252
REMARK  104  A    between atoms: _252  and  _253
REMARK  105  A    between atoms: _256  and  _258
REMARK  106  A    between atoms: _258  and  _259
REMARK  107  A    between atoms: _262  and  _264
REMARK  108  A    between atoms: _264  and  _265
REMARK  109  A    between atoms: _264  and  _267
REMARK  110  A    between atoms: _267  and  _268
REMARK  111  A    between atoms: _270  and  _272
REMARK  112  A    between atoms: _272  and  _273
REMARK  113  A    between atoms: _272  and  _275
REMARK  114  A    between atoms: _275  and  _276
REMARK  115  A    between atoms: _286  and  _288
REMARK  116  A    between atoms: _288  and  _289
REMARK  117  A    between atoms: _292  and  _293
REMARK  118  A    between atoms: _298  and  _300
REMARK  119  A    between atoms: _300  and  _301
REMARK  120  A    between atoms: _300  and  _303
REMARK  121  A    between atoms: _303  and  _304
REMARK  122  A    between atoms: _304  and  _305
REMARK  123  A    between atoms: _308  and  _310
REMARK  124  A    between atoms: _310  and  _311
REMARK  125  A    between atoms: _310  and  _313
REMARK  126  A    between atoms: _313  and  _314
REMARK  127  A    between atoms: _314  and  _315
REMARK  128  A    between atoms: _315  and  CA_629
REMARK  129  A    between atoms: _317  and  _319
REMARK  130  A    between atoms: _319  and  _320
REMARK  131  A    between atoms: _319  and  _322
REMARK  132  A    between atoms: _322  and  _323
REMARK  133  A    between atoms: _326  and  _328
REMARK  134  A    between atoms: _328  and  _329
REMARK  135  A    between atoms: _328  and  _331
REMARK  136  A    between atoms: _331  and  _332
REMARK  137  A    between atoms: _335  and  _337
REMARK  138  A    between atoms: _337  and  _338
REMARK  139  A    between atoms: _337  and  _340
REMARK  140  A    between atoms: _343  and  _345
REMARK  141  A    between atoms: _345  and  _346
REMARK  142  A    between atoms: _345  and  _348
REMARK  143  A    between atoms: _348  and  _349
REMARK  144  A    between atoms: _352  and  _354
REMARK  145  A    between atoms: _354  and  _355
REMARK  146  A    between atoms: _358  and  _359
REMARK  147  A    between atoms: _364  and  _366
REMARK  148  A    between atoms: _366  and  _367
REMARK  149  A    between atoms: _370  and  _372
REMARK  150  A    between atoms: _372  and  _373
REMARK  151  A    between atoms: _372  and  _375
REMARK  152  A    between atoms: _375  and  _376
REMARK  153  A    between atoms: _376  and  _377
REMARK  154  A    between atoms: _377  and  _378
REMARK  155  A    between atoms: _387  and  _389
REMARK  156  A    between atoms: _389  and  _390
REMARK  157  A    between atoms: _389  and  _392
REMARK  158  A    between atoms: _392  and  _393
REMARK  159  A    between atoms: _396  and  _398
REMARK  160  A    between atoms: _398  and  _399
REMARK  161  A    between atoms: _402  and  _404
REMARK  162  A    between atoms: _404  and  _405
REMARK  163  A    between atoms: _404  and  _407
REMARK  164  A    between atoms: _407  and  _408
REMARK  165  A    between atoms: _408  and  _409
REMARK  166  A    between atoms: _412  and  _414
REMARK  167  A    between atoms: _414  and  _415
REMARK  168  A    between atoms: _414  and  _417
REMARK  169  A    between atoms: _417  and  _418
REMARK  170  A    between atoms: _428  and  _430
REMARK  171  A    between atoms: _430  and  _431
REMARK  172  A    between atoms: _434  and  _436
REMARK  173  A    between atoms: _436  and  _437
REMARK  174  A    between atoms: _436  and  _439
REMARK  175  A    between atoms: _439  and  _440
REMARK  176  A    between atoms: _442  and  _444
REMARK  177  A    between atoms: _444  and  _445
REMARK  178  A    between atoms: _447  and  _449
REMARK  179  A    between atoms: _449  and  _450
REMARK  180  A    between atoms: _449  and  _452
REMARK  181  A    between atoms: _452  and  _453
REMARK  182  A    between atoms: _458  and  _460
REMARK  183  A    between atoms: _460  and  _461
REMARK  184  A    between atoms: _463  and  _465
REMARK  185  A    between atoms: _465  and  _466
REMARK  186  A    between atoms: _465  and  _468
REMARK  187  A    between atoms: _468  and  _469
REMARK  188  A    between atoms: _469  and  _471
REMARK  189  A    between atoms: _471  and  CA_629
REMARK  190  A    between atoms: _472  and  _474
REMARK  191  A    between atoms: _474  and  _475
REMARK  192  A    between atoms: _474  and  _477
REMARK  193  A    between atoms: _477  and  _478
REMARK  194  A    between atoms: _480  and  _482
REMARK  195  A    between atoms: _482  and  _483
REMARK  196  A    between atoms: _482  and  _485
REMARK  197  A    between atoms: _487  and  _489
REMARK  198  A    between atoms: _489  and  _490
REMARK  199  A    between atoms: _489  and  _492
REMARK  200  A    between atoms: _494  and  _496
REMARK  201  A    between atoms: _496  and  _497
REMARK  202  A    between atoms: _496  and  _499
REMARK  203  A    between atoms: _499  and  _500
REMARK  204  A    between atoms: _503  and  _505
REMARK  205  A    between atoms: _505  and  _506
REMARK  206  A    between atoms: _508  and  _510
REMARK  207  A    between atoms: _510  and  _511
REMARK  208  A    between atoms: _510  and  _513
REMARK  209  A    between atoms: _513  and  _514
REMARK  210  A    between atoms: _519  and  _520
REMARK  211  A    between atoms: _522  and  _524
REMARK  212  A    between atoms: _524  and  _525
REMARK  213  A    between atoms: _524  and  _527
REMARK  214  A    between atoms: _527  and  _528
REMARK  215  A    between atoms: _531  and  _533
REMARK  216  A    between atoms: _533  and  _534
REMARK  217  A    between atoms: _533  and  _536
REMARK  218  A    between atoms: _536  and  _537
REMARK  219  A    between atoms: _542  and  _544
REMARK  220  A    between atoms: _544  and  _545
REMARK  221  A    between atoms: _544  and  _547
REMARK  222  A    between atoms: _547  and  _548
REMARK  223  A    between atoms: _551  and  _553
REMARK  224  A    between atoms: _553  and  _554
REMARK  225  A    between atoms: _553  and  _556
REMARK  226  A    between atoms: _556  and  _557
REMARK  227  A    between atoms: _559  and  _561
REMARK  228  A    between atoms: _561  and  _562
REMARK  229  A    between atoms: _561  and  _564
REMARK  230  A    between atoms: _564  and  _565
REMARK  231  A    between atoms: _568  and  _570
REMARK  232  A    between atoms: _570  and  _571
REMARK  233  A    between atoms: _570  and  _573
REMARK  234  A    between atoms: _573  and  _574
REMARK  235  A    between atoms: _574  and  _575
REMARK  236  A    between atoms: _578  and  _580
REMARK  237  A    between atoms: _580  and  _581
REMARK  238  A    between atoms: _580  and  _583
REMARK  239  A    between atoms: _583  and  _584
REMARK  240  A    between atoms: _587  and  _589
REMARK  241  A    between atoms: _589  and  _590
REMARK  242  A    between atoms: _592  and  _594
REMARK  243  A    between atoms: _594  and  _595
REMARK  244  A    between atoms: _594  and  _597
REMARK  245  A    between atoms: _597  and  _598
REMARK  246  A    between atoms: _601  and  _603
REMARK  247  A    between atoms: _603  and  _604
REMARK  248  A    between atoms: _603  and  _606
REMARK  249  A    between atoms: _606  and  _607
REMARK  250  A    between atoms: _609  and  _611
REMARK  251  A    between atoms: _611  and  _612
REMARK  252  A    between atoms: _615  and  _617
REMARK  253  A    between atoms: _617  and  _618
REMARK  254  A    between atoms: _617  and  _620
REMARK  255  A    between atoms: _620  and  _621
REMARK  256  A    between atoms: _623  and  _625
REMARK  257  A    between atoms: _625  and  _626
REMARK                            x       y       z     vdW  Elec       q    Type
REMARK                         _______ _______ _______ _____ _____    ______ ____
ROOT
ATOM      1  O   HOH     1      27.975  34.561  -7.012  0.00  0.00    +0.000 OA
ENDROOT
TORSDOF 0
REMARK  Name = ../refined-set-2016/4omc/4omc_pocket.pdb
REMARK  257 active torsions:
REMARK  status: ('A' for Active; 'I' for Inactive)
REMARK    1  A    between atoms: _1  and  _3
REMARK    2  A    between atoms: _3  and  _4
REMARK    3  A    between atoms: _3  and  _6
REMARK    4  A    between atoms: _6  and  _7
REMARK    5  A    between atoms: _10  and  _12
REMARK    6  A    between atoms: _12  and  _13
REMARK    7  A    between atoms: _12  and  _15
REMARK    8  A    between atoms: _15  and  _16
REMARK    9  A    between atoms: _19  and  _21
REMARK   10  A    between atoms: _21  and  _22
REMARK   11  A    between atoms: _24  and  _26
REMARK   12  A    between atoms: _26  and  _27
REMARK   13  A    between atoms: _26  and  _29
REMARK   14  A    between atoms: _29  and  _30
REMARK   15  A    between atoms: _35  and  _37
REMARK   16  A    between atoms: _37  and  _38
REMARK   17  A    between atoms: _37  and  _40
REMARK   18  A    between atoms: _40  and  _41
REMARK   19  A    between atoms: _41  and  _42
REMARK   20  A    between atoms: _42  and  _43
REMARK   21  A    between atoms: _52  and  _54
REMARK   22  A    between atoms: _54  and  _55
REMARK   23  A    between atoms: _54  and  _57
REMARK   24  A    between atoms: _57  and  _58
REMARK   25  A    between atoms: _61  and  _63
REMARK   26  A    between atoms: _63  and  _64
REMARK   27  A    between atoms: _63  and  _66
REMARK   28  A    between atoms: _66  and  _67
REMARK   29  A    between atoms: _72  and  _74
REMARK   30  A    between atoms: _74  and  _75
REMARK   31  A    between atoms: _74  and  _77
REMARK   32  A    between atoms: _77  and  _78
REMARK   33  A    between atoms: _81  and  _83
REMARK   34  A    between atoms: _83  and  _84
REMARK   35  A    between atoms: _83  and  _86
REMARK   36  A    between atoms: _86  and  _87
REMARK   37  A    between atoms: _92  and  _94
REMARK   38  A    between atoms: _94  and  _95
REMARK   39  A    between atoms: _94  and  _97
REMARK   40  A    between atoms: _97  and  _98
REMARK   41  A    between atoms: _98  and  _99
REMARK   42  A    between atoms: _99  and  _100
REMARK   43  A    between atoms: _109  and  _111
REMARK   44  A    between atoms: _111  and  _112
REMARK   45  A    between atoms: _111  and  _114
REMARK   46  A    between atoms: _114  and  _115
REMARK   47  A    between atoms: _120  and  _122
REMARK   48  A    between atoms: _122  and  _123
REMARK   49  A    between atoms: _125  and  _127
REMARK   50  A    between atoms: _127  and  _128
REMARK   51  A    between atoms: _127  and  _130
REMARK   52  A    between atoms: _130  and  _131
REMARK   53  A    between atoms: _134  and  _136
REMARK   54  A    between atoms: _136  and  _137
REMARK   55  A    between atoms: _136  and  _139
REMARK   56  A    between atoms: _141  and  _143
REMARK   57  A    between atoms: _143  and  _144
REMARK   58  A    between atoms: _143  and  _146
REMARK   59  A    between atoms: _146  and  _147
REMARK   60  A    between atoms: _147  and  _148
REMARK   61  A    between atoms: _148  and  _149
REMARK   62  A    between atoms: _158  and  _160
REMARK   63  A    between atoms: _160  and  _161
REMARK   64  A    between atoms: _160  and  _163
REMARK   65  A    between atoms: _163  and  _164
REMARK   66  A    between atoms: _164  and  _165
REMARK   67  A    between atoms: _167  and  _169
REMARK   68  A    between atoms: _169  and  _170
REMARK   69  A    between atoms: _169  and  _172
REMARK   70  A    between atoms: _172  and  _173
REMARK   71  A    between atoms: _176  and  _178
REMARK   72  A    between atoms: _178  and  _179
REMARK   73  A    between atoms: _178  and  _181
REMARK   74  A    between atoms: _181  and  _182
REMARK   75  A    between atoms: _185  and  _187
REMARK   76  A    between atoms: _187  and  _188
REMARK   77  A    between atoms: _190  and  _192
REMARK   78  A    between atoms: _192  and  _193
REMARK   79  A    between atoms: _192  and  _195
REMARK   80  A    between atoms: _195  and  _196
REMARK   81  A    between atoms: _196  and  _197
REMARK   82  A    between atoms: _200  and  _202
REMARK   83  A    between atoms: _202  and  _203
REMARK   84  A    between atoms: _202  and  _205
REMARK   85  A    between atoms: _208  and  _210
REMARK   86  A    between atoms: _210  and  _211
REMARK   87  A    between atoms: _210  and  _213
REMARK   88  A    between atoms: _213  and  _214
REMARK   89  A    between atoms: _217  and  _219
REMARK   90  A    between atoms: _219  and  _220
REMARK   91  A    between atoms: _219  and  _222
REMARK   92  A    between atoms: _222  and  _223
REMARK   93  A    between atoms: _226  and  _228
REMARK   94  A    between atoms: _228  and  _229
REMARK   95  A    between atoms: _232  and  _234
REMARK   96  A    between atoms: _234  and  _235
REMARK   97  A    between atoms: _234  and  _237
REMARK   98  A    between atoms: _240  and  _242
REMARK   99  A    between atoms: _242  and  _243
REMARK  100  A    between atoms: _242  and  _245
REMARK  101  A    between atoms: _245  and  _246
REMARK  102  A    between atoms: _246  and  _247
REMARK  103  A    between atoms: _250  and  _252
REMARK  104  A    between atoms: _252  and  _253
REMARK  105  A    between atoms: _256  and  _258
REMARK  106  A    between atoms: _258  and  _259
REMARK  107  A    between atoms: _262  and  _264
REMARK  108  A    between atoms: _264  and  _265
REMARK  109  A    between atoms: _264  and  _267
REMARK  110  A    between atoms: _267  and  _268
REMARK  111  A    between atoms: _270  and  _272
REMARK  112  A    between atoms: _272  and  _273
REMARK  113  A    between atoms: _272  and  _275
REMARK  114  A    between atoms: _275  and  _276
REMARK  115  A    between atoms: _286  and  _288
REMARK  116  A    between atoms: _288  and  _289
REMARK  117  A    between atoms: _292  and  _293
REMARK  118  A    between atoms: _298  and  _300
REMARK  119  A    between atoms: _300  and  _301
REMARK  120  A    between atoms: _300  and  _303
REMARK  121  A    between atoms: _303  and  _304
REMARK  122  A    between atoms: _304  and  _305
REMARK  123  A    between atoms: _308  and  _310
REMARK  124  A    between atoms: _310  and  _311
REMARK  125  A    between atoms: _310  and  _313
REMARK  126  A    between atoms: _313  and  _314
REMARK  127  A    between atoms: _314  and  _315
REMARK  128  A    between atoms: _315  and  CA_629
REMARK  129  A    between atoms: _317  and  _319
REMARK  130  A    between atoms: _319  and  _320
REMARK  131  A    between atoms: _319  and  _322
REMARK  132  A    between atoms: _322  and  _323
REMARK  133  A    between atoms: _326  and  _328
REMARK  134  A    between atoms: _328  and  _329
REMARK  135  A    between atoms: _328  and  _331
REMARK  136  A    between atoms: _331  and  _332
REMARK  137  A    between atoms: _335  and  _337
REMARK  138  A    between atoms: _337  and  _338
REMARK  139  A    between atoms: _337  and  _340
REMARK  140  A    between atoms: _343  and  _345
REMARK  141  A    between atoms: _345  and  _346
REMARK  142  A    between atoms: _345  and  _348
REMARK  143  A    between atoms: _348  and  _349
REMARK  144  A    between atoms: _352  and  _354
REMARK  145  A    between atoms: _354  and  _355
REMARK  146  A    between atoms: _358  and  _359
REMARK  147  A    between atoms: _364  and  _366
REMARK  148  A    between atoms: _366  and  _367
REMARK  149  A    between atoms: _370  and  _372
REMARK  150  A    between atoms: _372  and  _373
REMARK  151  A    between atoms: _372  and  _375
REMARK  152  A    between atoms: _375  and  _376
REMARK  153  A    between atoms: _376  and  _377
REMARK  154  A    between atoms: _377  and  _378
REMARK  155  A    between atoms: _387  and  _389
REMARK  156  A    between atoms: _389  and  _390
REMARK  157  A    between atoms: _389  and  _392
REMARK  158  A    between atoms: _392  and  _393
REMARK  159  A    between atoms: _396  and  _398
REMARK  160  A    between atoms: _398  and  _399
REMARK  161  A    between atoms: _402  and  _404
REMARK  162  A    between atoms: _404  and  _405
REMARK  163  A    between atoms: _404  and  _407
REMARK  164  A    between atoms: _407  and  _408
REMARK  165  A    between atoms: _408  and  _409
REMARK  166  A    between atoms: _412  and  _414
REMARK  167  A    between atoms: _414  and  _415
REMARK  168  A    between atoms: _414  and  _417
REMARK  169  A    between atoms: _417  and  _418
REMARK  170  A    between atoms: _428  and  _430
REMARK  171  A    between atoms: _430  and  _431
REMARK  172  A    between atoms: _434  and  _436
REMARK  173  A    between atoms: _436  and  _437
REMARK  174  A    between atoms: _436  and  _439
REMARK  175  A    between atoms: _439  and  _440
REMARK  176  A    between atoms: _442  and  _444
REMARK  177  A    between atoms: _444  and  _445
REMARK  178  A    between atoms: _447  and  _449
REMARK  179  A    between atoms: _449  and  _450
REMARK  180  A    between atoms: _449  and  _452
REMARK  181  A    between atoms: _452  and  _453
REMARK  182  A    between atoms: _458  and  _460
REMARK  183  A    between atoms: _460  and  _461
REMARK  184  A    between atoms: _463  and  _465
REMARK  185  A    between atoms: _465  and  _466
REMARK  186  A    between atoms: _465  and  _468
REMARK  187  A    between atoms: _468  and  _469
REMARK  188  A    between atoms: _469  and  _471
REMARK  189  A    between atoms: _471  and  CA_629
REMARK  190  A    between atoms: _472  and  _474
REMARK  191  A    between atoms: _474  and  _475
REMARK  192  A    between atoms: _474  and  _477
REMARK  193  A    between atoms: _477  and  _478
REMARK  194  A    between atoms: _480  and  _482
REMARK  195  A    between atoms: _482  and  _483
REMARK  196  A    between atoms: _482  and  _485
REMARK  197  A    between atoms: _487  and  _489
REMARK  198  A    between atoms: _489  and  _490
REMARK  199  A    between atoms: _489  and  _492
REMARK  200  A    between atoms: _494  and  _496
REMARK  201  A    between atoms: _496  and  _497
REMARK  202  A    between atoms: _496  and  _499
REMARK  203  A    between atoms: _499  and  _500
REMARK  204  A    between atoms: _503  and  _505
REMARK  205  A    between atoms: _505  and  _506
REMARK  206  A    between atoms: _508  and  _510
REMARK  207  A    between atoms: _510  and  _511
REMARK  208  A    between atoms: _510  and  _513
REMARK  209  A    between atoms: _513  and  _514
REMARK  210  A    between atoms: _519  and  _520
REMARK  211  A    between atoms: _522  and  _524
REMARK  212  A    between atoms: _524  and  _525
REMARK  213  A    between atoms: _524  and  _527
REMARK  214  A    between atoms: _527  and  _528
REMARK  215  A    between atoms: _531  and  _533
REMARK  216  A    between atoms: _533  and  _534
REMARK  217  A    between atoms: _533  and  _536
REMARK  218  A    between atoms: _536  and  _537
REMARK  219  A    between atoms: _542  and  _544
REMARK  220  A    between atoms: _544  and  _545
REMARK  221  A    between atoms: _544  and  _547
REMARK  222  A    between atoms: _547  and  _548
REMARK  223  A    between atoms: _551  and  _553
REMARK  224  A    between atoms: _553  and  _554
REMARK  225  A    between atoms: _553  and  _556
REMARK  226  A    between atoms: _556  and  _557
REMARK  227  A    between atoms: _559  and  _561
REMARK  228  A    between atoms: _561  and  _562
REMARK  229  A    between atoms: _561  and  _564
REMARK  230  A    between atoms: _564  and  _565
REMARK  231  A    between atoms: _568  and  _570
REMARK  232  A    between atoms: _570  and  _571
REMARK  233  A    between atoms: _570  and  _573
REMARK  234  A    between atoms: _573  and  _574
REMARK  235  A    between atoms: _574  and  _575
REMARK  236  A    between atoms: _578  and  _580
REMARK  237  A    between atoms: _580  and  _581
REMARK  238  A    between atoms: _580  and  _583
REMARK  239  A    between atoms: _583  and  _584
REMARK  240  A    between atoms: _587  and  _589
REMARK  241  A    between atoms: _589  and  _590
REMARK  242  A    between atoms: _592  and  _594
REMARK  243  A    between atoms: _594  and  _595
REMARK  244  A    between atoms: _594  and  _597
REMARK  245  A    between atoms: _597  and  _598
REMARK  246  A    between atoms: _601  and  _603
REMARK  247  A    between atoms: _603  and  _604
REMARK  248  A    between atoms: _603  and  _606
REMARK  249  A    between atoms: _606  and  _607
REMARK  250  A    between atoms: _609  and  _611
REMARK  251  A    between atoms: _611  and  _612
REMARK  252  A    between atoms: _615  and  _617
REMARK  253  A    between atoms: _617  and  _618
REMARK  254  A    between atoms: _617  and  _620
REMARK  255  A    between atoms: _620  and  _621
REMARK  256  A    between atoms: _623  and  _625
REMARK  257  A    between atoms: _625  and  _626
REMARK                            x       y       z     vdW  Elec       q    Type
REMARK                         _______ _______ _______ _____ _____    ______ ____
ROOT
ATOM      1  O   HOH     1      33.508  29.684  -6.819  0.00  0.00    +0.000 OA
ENDROOT
TORSDOF 0
REMARK  Name = ../refined-set-2016/4omc/4omc_pocket.pdb
REMARK  257 active torsions:
REMARK  status: ('A' for Active; 'I' for Inactive)
REMARK    1  A    between atoms: _1  and  _3
REMARK    2  A    between atoms: _3  and  _4
REMARK    3  A    between atoms: _3  and  _6
REMARK    4  A    between atoms: _6  and  _7
REMARK    5  A    between atoms: _10  and  _12
REMARK    6  A    between atoms: _12  and  _13
REMARK    7  A    between atoms: _12  and  _15
REMARK    8  A    between atoms: _15  and  _16
REMARK    9  A    between atoms: _19  and  _21
REMARK   10  A    between atoms: _21  and  _22
REMARK   11  A    between atoms: _24  and  _26
REMARK   12  A    between atoms: _26  and  _27
REMARK   13  A    between atoms: _26  and  _29
REMARK   14  A    between atoms: _29  and  _30
REMARK   15  A    between atoms: _35  and  _37
REMARK   16  A    between atoms: _37  and  _38
REMARK   17  A    between atoms: _37  and  _40
REMARK   18  A    between atoms: _40  and  _41
REMARK   19  A    between atoms: _41  and  _42
REMARK   20  A    between atoms: _42  and  _43
REMARK   21  A    between atoms: _52  and  _54
REMARK   22  A    between atoms: _54  and  _55
REMARK   23  A    between atoms: _54  and  _57
REMARK   24  A    between atoms: _57  and  _58
REMARK   25  A    between atoms: _61  and  _63
REMARK   26  A    between atoms: _63  and  _64
REMARK   27  A    between atoms: _63  and  _66
REMARK   28  A    between atoms: _66  and  _67
REMARK   29  A    between atoms: _72  and  _74
REMARK   30  A    between atoms: _74  and  _75
REMARK   31  A    between atoms: _74  and  _77
REMARK   32  A    between atoms: _77  and  _78
REMARK   33  A    between atoms: _81  and  _83
REMARK   34  A    between atoms: _83  and  _84
REMARK   35  A    between atoms: _83  and  _86
REMARK   36  A    between atoms: _86  and  _87
REMARK   37  A    between atoms: _92  and  _94
REMARK   38  A    between atoms: _94  and  _95
REMARK   39  A    between atoms: _94  and  _97
REMARK   40  A    between atoms: _97  and  _98
REMARK   41  A    between atoms: _98  and  _99
REMARK   42  A    between atoms: _99  and  _100
REMARK   43  A    between atoms: _109  and  _111
REMARK   44  A    between atoms: _111  and  _112
REMARK   45  A    between atoms: _111  and  _114
REMARK   46  A    between atoms: _114  and  _115
REMARK   47  A    between atoms: _120  and  _122
REMARK   48  A    between atoms: _122  and  _123
REMARK   49  A    between atoms: _125  and  _127
REMARK   50  A    between atoms: _127  and  _128
REMARK   51  A    between atoms: _127  and  _130
REMARK   52  A    between atoms: _130  and  _131
REMARK   53  A    between atoms: _134  and  _136
REMARK   54  A    between atoms: _136  and  _137
REMARK   55  A    between atoms: _136  and  _139
REMARK   56  A    between atoms: _141  and  _143
REMARK   57  A    between atoms: _143  and  _144
REMARK   58  A    between atoms: _143  and  _146
REMARK   59  A    between atoms: _146  and  _147
REMARK   60  A    between atoms: _147  and  _148
REMARK   61  A    between atoms: _148  and  _149
REMARK   62  A    between atoms: _158  and  _160
REMARK   63  A    between atoms: _160  and  _161
REMARK   64  A    between atoms: _160  and  _163
REMARK   65  A    between atoms: _163  and  _164
REMARK   66  A    between atoms: _164  and  _165
REMARK   67  A    between atoms: _167  and  _169
REMARK   68  A    between atoms: _169  and  _170
REMARK   69  A    between atoms: _169  and  _172
REMARK   70  A    between atoms: _172  and  _173
REMARK   71  A    between atoms: _176  and  _178
REMARK   72  A    between atoms: _178  and  _179
REMARK   73  A    between atoms: _178  and  _181
REMARK   74  A    between atoms: _181  and  _182
REMARK   75  A    between atoms: _185  and  _187
REMARK   76  A    between atoms: _187  and  _188
REMARK   77  A    between atoms: _190  and  _192
REMARK   78  A    between atoms: _192  and  _193
REMARK   79  A    between atoms: _192  and  _195
REMARK   80  A    between atoms: _195  and  _196
REMARK   81  A    between atoms: _196  and  _197
REMARK   82  A    between atoms: _200  and  _202
REMARK   83  A    between atoms: _202  and  _203
REMARK   84  A    between atoms: _202  and  _205
REMARK   85  A    between atoms: _208  and  _210
REMARK   86  A    between atoms: _210  and  _211
REMARK   87  A    between atoms: _210  and  _213
REMARK   88  A    between atoms: _213  and  _214
REMARK   89  A    between atoms: _217  and  _219
REMARK   90  A    between atoms: _219  and  _220
REMARK   91  A    between atoms: _219  and  _222
REMARK   92  A    between atoms: _222  and  _223
REMARK   93  A    between atoms: _226  and  _228
REMARK   94  A    between atoms: _228  and  _229
REMARK   95  A    between atoms: _232  and  _234
REMARK   96  A    between atoms: _234  and  _235
REMARK   97  A    between atoms: _234  and  _237
REMARK   98  A    between atoms: _240  and  _242
REMARK   99  A    between atoms: _242  and  _243
REMARK  100  A    between atoms: _242  and  _245
REMARK  101  A    between atoms: _245  and  _246
REMARK  102  A    between atoms: _246  and  _247
REMARK  103  A    between atoms: _250  and  _252
REMARK  104  A    between atoms: _252  and  _253
REMARK  105  A    between atoms: _256  and  _258
REMARK  106  A    between atoms: _258  and  _259
REMARK  107  A    between atoms: _262  and  _264
REMARK  108  A    between atoms: _264  and  _265
REMARK  109  A    between atoms: _264  and  _267
REMARK  110  A    between atoms: _267  and  _268
REMARK  111  A    between atoms: _270  and  _272
REMARK  112  A    between atoms: _272  and  _273
REMARK  113  A    between atoms: _272  and  _275
REMARK  114  A    between atoms: _275  and  _276
REMARK  115  A    between atoms: _286  and  _288
REMARK  116  A    between atoms: _288  and  _289
REMARK  117  A    between atoms: _292  and  _293
REMARK  118  A    between atoms: _298  and  _300
REMARK  119  A    between atoms: _300  and  _301
REMARK  120  A    between atoms: _300  and  _303
REMARK  121  A    between atoms: _303  and  _304
REMARK  122  A    between atoms: _304  and  _305
REMARK  123  A    between atoms: _308  and  _310
REMARK  124  A    between atoms: _310  and  _311
REMARK  125  A    between atoms: _310  and  _313
REMARK  126  A    between atoms: _313  and  _314
REMARK  127  A    between atoms: _314  and  _315
REMARK  128  A    between atoms: _315  and  CA_629
REMARK  129  A    between atoms: _317  and  _319
REMARK  130  A    between atoms: _319  and  _320
REMARK  131  A    between atoms: _319  and  _322
REMARK  132  A    between atoms: _322  and  _323
REMARK  133  A    between atoms: _326  and  _328
REMARK  134  A    between atoms: _328  and  _329
REMARK  135  A    between atoms: _328  and  _331
REMARK  136  A    between atoms: _331  and  _332
REMARK  137  A    between atoms: _335  and  _337
REMARK  138  A    between atoms: _337  and  _338
REMARK  139  A    between atoms: _337  and  _340
REMARK  140  A    between atoms: _343  and  _345
REMARK  141  A    between atoms: _345  and  _346
REMARK  142  A    between atoms: _345  and  _348
REMARK  143  A    between atoms: _348  and  _349
REMARK  144  A    between atoms: _352  and  _354
REMARK  145  A    between atoms: _354  and  _355
REMARK  146  A    between atoms: _358  and  _359
REMARK  147  A    between atoms: _364  and  _366
REMARK  148  A    between atoms: _366  and  _367
REMARK  149  A    between atoms: _370  and  _372
REMARK  150  A    between atoms: _372  and  _373
REMARK  151  A    between atoms: _372  and  _375
REMARK  152  A    between atoms: _375  and  _376
REMARK  153  A    between atoms: _376  and  _377
REMARK  154  A    between atoms: _377  and  _378
REMARK  155  A    between atoms: _387  and  _389
REMARK  156  A    between atoms: _389  and  _390
REMARK  157  A    between atoms: _389  and  _392
REMARK  158  A    between atoms: _392  and  _393
REMARK  159  A    between atoms: _396  and  _398
REMARK  160  A    between atoms: _398  and  _399
REMARK  161  A    between atoms: _402  and  _404
REMARK  162  A    between atoms: _404  and  _405
REMARK  163  A    between atoms: _404  and  _407
REMARK  164  A    between atoms: _407  and  _408
REMARK  165  A    between atoms: _408  and  _409
REMARK  166  A    between atoms: _412  and  _414
REMARK  167  A    between atoms: _414  and  _415
REMARK  168  A    between atoms: _414  and  _417
REMARK  169  A    between atoms: _417  and  _418
REMARK  170  A    between atoms: _428  and  _430
REMARK  171  A    between atoms: _430  and  _431
REMARK  172  A    between atoms: _434  and  _436
REMARK  173  A    between atoms: _436  and  _437
REMARK  174  A    between atoms: _436  and  _439
REMARK  175  A    between atoms: _439  and  _440
REMARK  176  A    between atoms: _442  and  _444
REMARK  177  A    between atoms: _444  and  _445
REMARK  178  A    between atoms: _447  and  _449
REMARK  179  A    between atoms: _449  and  _450
REMARK  180  A    between atoms: _449  and  _452
REMARK  181  A    between atoms: _452  and  _453
REMARK  182  A    between atoms: _458  and  _460
REMARK  183  A    between atoms: _460  and  _461
REMARK  184  A    between atoms: _463  and  _465
REMARK  185  A    between atoms: _465  and  _466
REMARK  186  A    between atoms: _465  and  _468
REMARK  187  A    between atoms: _468  and  _469
REMARK  188  A    between atoms: _469  and  _471
REMARK  189  A    between atoms: _471  and  CA_629
REMARK  190  A    between atoms: _472  and  _474
REMARK  191  A    between atoms: _474  and  _475
REMARK  192  A    between atoms: _474  and  _477
REMARK  193  A    between atoms: _477  and  _478
REMARK  194  A    between atoms: _480  and  _482
REMARK  195  A    between atoms: _482  and  _483
REMARK  196  A    between atoms: _482  and  _485
REMARK  197  A    between atoms: _487  and  _489
REMARK  198  A    between atoms: _489  and  _490
REMARK  199  A    between atoms: _489  and  _492
REMARK  200  A    between atoms: _494  and  _496
REMARK  201  A    between atoms: _496  and  _497
REMARK  202  A    between atoms: _496  and  _499
REMARK  203  A    between atoms: _499  and  _500
REMARK  204  A    between atoms: _503  and  _505
REMARK  205  A    between atoms: _505  and  _506
REMARK  206  A    between atoms: _508  and  _510
REMARK  207  A    between atoms: _510  and  _511
REMARK  208  A    between atoms: _510  and  _513
REMARK  209  A    between atoms: _513  and  _514
REMARK  210  A    between atoms: _519  and  _520
REMARK  211  A    between atoms: _522  and  _524
REMARK  212  A    between atoms: _524  and  _525
REMARK  213  A    between atoms: _524  and  _527
REMARK  214  A    between atoms: _527  and  _528
REMARK  215  A    between atoms: _531  and  _533
REMARK  216  A    between atoms: _533  and  _534
REMARK  217  A    between atoms: _533  and  _536
REMARK  218  A    between atoms: _536  and  _537
REMARK  219  A    between atoms: _542  and  _544
REMARK  220  A    between atoms: _544  and  _545
REMARK  221  A    between atoms: _544  and  _547
REMARK  222  A    between atoms: _547  and  _548
REMARK  223  A    between atoms: _551  and  _553
REMARK  224  A    between atoms: _553  and  _554
REMARK  225  A    between atoms: _553  and  _556
REMARK  226  A    between atoms: _556  and  _557
REMARK  227  A    between atoms: _559  and  _561
REMARK  228  A    between atoms: _561  and  _562
REMARK  229  A    between atoms: _561  and  _564
REMARK  230  A    between atoms: _564  and  _565
REMARK  231  A    between atoms: _568  and  _570
REMARK  232  A    between atoms: _570  and  _571
REMARK  233  A    between atoms: _570  and  _573
REMARK  234  A    between atoms: _573  and  _574
REMARK  235  A    between atoms: _574  and  _575
REMARK  236  A    between atoms: _578  and  _580
REMARK  237  A    between atoms: _580  and  _581
REMARK  238  A    between atoms: _580  and  _583
REMARK  239  A    between atoms: _583  and  _584
REMARK  240  A    between atoms: _587  and  _589
REMARK  241  A    between atoms: _589  and  _590
REMARK  242  A    between atoms: _592  and  _594
REMARK  243  A    between atoms: _594  and  _595
REMARK  244  A    between atoms: _594  and  _597
REMARK  245  A    between atoms: _597  and  _598
REMARK  246  A    between atoms: _601  and  _603
REMARK  247  A    between atoms: _603  and  _604
REMARK  248  A    between atoms: _603  and  _606
REMARK  249  A    between atoms: _606  and  _607
REMARK  250  A    between atoms: _609  and  _611
REMARK  251  A    between atoms: _611  and  _612
REMARK  252  A    between atoms: _615  and  _617
REMARK  253  A    between atoms: _617  and  _618
REMARK  254  A    between atoms: _617  and  _620
REMARK  255  A    between atoms: _620  and  _621
REMARK  256  A    between atoms: _623  and  _625
REMARK  257  A    between atoms: _625  and  _626
REMARK                            x       y       z     vdW  Elec       q    Type
REMARK                         _______ _______ _______ _____ _____    ______ ____
ROOT
ATOM      1  O   HOH     1      32.402  38.315  -5.026  0.00  0.00    +0.000 OA
ENDROOT
TORSDOF 0
