REMARK  Name = ../refined-set-2016/4b35/4b35_pocket.pdb
REMARK  102 active torsions:
REMARK  status: ('A' for Active; 'I' for Inactive)
REMARK    1  A    between atoms: _1  and  _3
REMARK    2  A    between atoms: _3  and  _4
REMARK    3  A    between atoms: _3  and  _6
REMARK    4  A    between atoms: _9  and  _11
REMARK    5  A    between atoms: _11  and  _12
REMARK    6  A    between atoms: _11  and  _14
REMARK    7  A    between atoms: _14  and  _15
REMARK    8  A    between atoms: _15  and  _16
REMARK    9  A    between atoms: _18  and  _20
REMARK   10  A    between atoms: _20  and  _21
REMARK   11  A    between atoms: _20  and  _23
REMARK   12  A    between atoms: _23  and  _24
REMARK   13  A    between atoms: _34  and  _36
REMARK   14  A    between atoms: _36  and  _37
REMARK   15  A    between atoms: _36  and  _39
REMARK   16  A    between atoms: _39  and  _40
REMARK   17  A    between atoms: _43  and  _45
REMARK   18  A    between atoms: _45  and  _46
REMARK   19  A    between atoms: _45  and  _48
REMARK   20  A    between atoms: _48  and  _49
REMARK   21  A    between atoms: _52  and  _54
REMARK   22  A    between atoms: _54  and  _55
REMARK   23  A    between atoms: _54  and  _57
REMARK   24  A    between atoms: _57  and  _58
REMARK   25  A    between atoms: _61  and  _63
REMARK   26  A    between atoms: _63  and  _64
REMARK   27  A    between atoms: _67  and  _69
REMARK   28  A    between atoms: _69  and  _70
REMARK   29  A    between atoms: _69  and  _72
REMARK   30  A    between atoms: _72  and  _73
REMARK   31  A    between atoms: _78  and  _79
REMARK   32  A    between atoms: _81  and  _83
REMARK   33  A    between atoms: _83  and  _84
REMARK   34  A    between atoms: _87  and  _89
REMARK   35  A    between atoms: _89  and  _90
REMARK   36  A    between atoms: _89  and  _92
REMARK   37  A    between atoms: _92  and  _93
REMARK   38  A    between atoms: _93  and  _94
REMARK   39  A    between atoms: _94  and  _95
REMARK   40  A    between atoms: _104  and  _106
REMARK   41  A    between atoms: _106  and  _107
REMARK   42  A    between atoms: _106  and  _109
REMARK   43  A    between atoms: _109  and  _110
REMARK   44  A    between atoms: _115  and  _117
REMARK   45  A    between atoms: _117  and  _118
REMARK   46  A    between atoms: _117  and  _120
REMARK   47  A    between atoms: _120  and  _121
REMARK   48  A    between atoms: _121  and  _122
REMARK   49  A    between atoms: _127  and  _129
REMARK   50  A    between atoms: _129  and  _130
REMARK   51  A    between atoms: _129  and  _132
REMARK   52  A    between atoms: _132  and  _133
REMARK   53  A    between atoms: _133  and  _134
REMARK   54  A    between atoms: _136  and  _138
REMARK   55  A    between atoms: _138  and  _139
REMARK   56  A    between atoms: _138  and  _141
REMARK   57  A    between atoms: _141  and  _142
REMARK   58  A    between atoms: _145  and  _147
REMARK   59  A    between atoms: _147  and  _148
REMARK   60  A    between atoms: _147  and  _150
REMARK   61  A    between atoms: _150  and  _151
REMARK   62  A    between atoms: _154  and  _156
REMARK   63  A    between atoms: _156  and  _157
REMARK   64  A    between atoms: _156  and  _159
REMARK   65  A    between atoms: _162  and  _164
REMARK   66  A    between atoms: _164  and  _165
REMARK   67  A    between atoms: _164  and  _167
REMARK   68  A    between atoms: _167  and  _168
REMARK   69  A    between atoms: _168  and  _169
REMARK   70  A    between atoms: _174  and  _176
REMARK   71  A    between atoms: _176  and  _177
REMARK   72  A    between atoms: _176  and  _179
REMARK   73  A    between atoms: _179  and  _180
REMARK   74  A    between atoms: _180  and  _181
REMARK   75  A    between atoms: _186  and  _188
REMARK   76  A    between atoms: _188  and  _189
REMARK   77  A    between atoms: _192  and  _194
REMARK   78  A    between atoms: _194  and  _195
REMARK   79  A    between atoms: _194  and  _197
REMARK   80  A    between atoms: _197  and  _198
REMARK   81  A    between atoms: _198  and  _199
REMARK   82  A    between atoms: _202  and  _204
REMARK   83  A    between atoms: _204  and  _205
REMARK   84  A    between atoms: _204  and  _207
REMARK   85  A    between atoms: _207  and  _208
REMARK   86  A    between atoms: _211  and  _213
REMARK   87  A    between atoms: _213  and  _214
REMARK   88  A    between atoms: _213  and  _216
REMARK   89  A    between atoms: _216  and  _217
REMARK   90  A    between atoms: _217  and  _218
REMARK   91  A    between atoms: _220  and  _222
REMARK   92  A    between atoms: _222  and  _223
REMARK   93  A    between atoms: _222  and  _225
REMARK   94  A    between atoms: _225  and  _226
REMARK   95  A    between atoms: _229  and  _231
REMARK   96  A    between atoms: _231  and  _232
REMARK   97  A    between atoms: _231  and  _234
REMARK   98  A    between atoms: _234  and  _235
REMARK   99  A    between atoms: _238  and  _240
REMARK  100  A    between atoms: _240  and  _241
REMARK  101  A    between atoms: _240  and  _243
REMARK  102  A    between atoms: _243  and  _244
REMARK                            x       y       z     vdW  Elec       q    Type
REMARK                         _______ _______ _______ _____ _____    ______ ____
ROOT
ATOM      1  CA  TRP A   3      16.376   1.693   0.265  0.00  0.00    +0.153 C 
ENDROOT
BRANCH   1   3
ATOM      2  C   MET A   2      15.518   2.226  -1.964  0.00  0.00    +0.241 C 
ATOM      3  N   TRP A   3      16.541   2.061  -1.131  0.00  0.00    -0.297 N 
ATOM      4  H   TRP A   3      17.505   2.202  -1.496  0.00  0.00    +0.150 HD
ATOM      5  O   MET A   2      14.336   2.233  -1.607  0.00  0.00    -0.273 OA
BRANCH   2   6
ATOM      6  CA  MET A   2      15.873   2.401  -3.425  0.00  0.00    +0.149 C 
BRANCH   6   8
ATOM      7  C   VAL A   1      15.481   0.584  -4.987  0.00  0.00    +0.238 C 
ATOM      8  N   MET A   2      15.003   1.520  -4.177  0.00  0.00    -0.297 N 
ATOM      9  H   MET A   2      13.973   1.624  -4.079  0.00  0.00    +0.150 HD
ATOM     10  O   VAL A   1      16.664   0.543  -5.333  0.00  0.00    -0.274 OA
BRANCH   7  11
ATOM     11  CA  VAL A   1      14.487  -0.455  -5.466  0.00  0.00    +0.145 C 
BRANCH  11  12
ATOM     12  CB  VAL A   1      14.590  -1.637  -4.509  0.00  0.00    +0.025 C 
ATOM     13  CG2 VAL A   1      14.209  -1.232  -3.095  0.00  0.00    +0.002 C 
ATOM     14  CG1 VAL A   1      13.712  -2.775  -5.003  0.00  0.00    +0.002 C 
ENDBRANCH  11  12
BRANCH  11  15
ATOM     15  N   VAL A   1      14.783  -0.900  -6.816  0.00  0.00    -0.238 NA
ATOM     16  H   VAL A   1      15.739  -1.247  -7.032  0.00  0.00    +0.142 HD
ENDBRANCH  11  15
ENDBRANCH   7  11
ENDBRANCH   6   8
BRANCH   6  17
ATOM     17  CB  MET A   2      15.716   3.855  -3.869  0.00  0.00    +0.041 C 
BRANCH  17  18
ATOM     18  CG  MET A   2      16.096   4.064  -5.350  0.00  0.00    +0.060 C 
BRANCH  18  19
ATOM     19  SD  MET A   2      16.130   5.769  -5.934  0.00  0.00    -0.139 S 
ATOM     20  CE  MET A   2      17.616   6.363  -5.147  0.00  0.00    +0.069 C 
ENDBRANCH  18  19
ENDBRANCH  17  18
ENDBRANCH   6  17
ENDBRANCH   2   6
ENDBRANCH   1   3
BRANCH   1  21
ATOM     21  C   TRP A   3      17.162   2.632   1.176  0.00  0.00    +0.241 C 
ATOM     22  N   ILE A   4      16.444   3.371   2.014  0.00  0.00    -0.297 N 
ATOM     23  H   ILE A   4      15.406   3.325   1.959  0.00  0.00    +0.150 HD
ATOM     24  O   TRP A   3      18.401   2.712   1.105  0.00  0.00    -0.273 OA
BRANCH  22  25
ATOM     25  CA  ILE A   4      17.056   4.243   3.007  0.00  0.00    +0.149 C 
BRANCH  25  26
ATOM     26  C   ILE A   4      16.917   3.607   4.395  0.00  0.00    +0.241 C 
ATOM     27  N   ASP A   5      18.054   3.331   5.033  0.00  0.00    -0.298 N 
ATOM     28  H   ASP A   5      18.939   3.690   4.622  0.00  0.00    +0.150 HD
ATOM     29  O   ILE A   4      15.806   3.360   4.863  0.00  0.00    -0.273 OA
BRANCH  27  30
ATOM     30  CA  ASP A   5      18.143   2.559   6.269  0.00  0.00    +0.148 C 
BRANCH  30  31
ATOM     31  C   ASP A   5      18.604   3.493   7.381  0.00  0.00    +0.227 C 
ATOM     32  O   ASP A   5      19.701   4.064   7.284  0.00  0.00    -0.286 OA
ENDBRANCH  30  31
BRANCH  30  33
ATOM     33  CB  ASP A   5      19.179   1.455   6.012  0.00  0.00    +0.142 C 
BRANCH  33  34
ATOM     34  CG  ASP A   5      19.347   0.478   7.156  0.00  0.00    +0.367 C 
ATOM     35  OD2 ASP A   5      18.637   0.548   8.171  0.00  0.00    -0.246 OA
ATOM     36  OD1 ASP A   5      20.232  -0.404   7.037  0.00  0.00    -0.246 OA
ENDBRANCH  33  34
ENDBRANCH  30  33
ENDBRANCH  27  30
ENDBRANCH  25  26
BRANCH  25  37
ATOM     37  CB  ILE A   4      16.417   5.646   2.988  0.00  0.00    +0.027 C 
ATOM     38  CG2 ILE A   4      16.993   6.502   4.117  0.00  0.00    +0.002 C 
BRANCH  37  39
ATOM     39  CG1 ILE A   4      16.672   6.338   1.642  0.00  0.00    +0.002 C 
ATOM     40  CD1 ILE A   4      15.858   7.626   1.438  0.00  0.00    +0.000 C 
ENDBRANCH  37  39
ENDBRANCH  25  37
ENDBRANCH  22  25
ENDBRANCH   1  21
BRANCH   1  41
ATOM     41  CB  TRP A   3      16.836   0.247   0.476  0.00  0.00    +0.057 C 
BRANCH  41  42
ATOM     42  CG  TRP A   3      16.507  -0.310   1.815  0.00  0.00    -0.002 A 
ATOM     43  CD1 TRP A   3      16.780   0.248   3.035  0.00  0.00    +0.068 A 
ATOM     44  NE1 TRP A   3      16.329  -0.572   4.040  0.00  0.00    -0.352 N 
ATOM     45  HE1 TRP A   3      16.400  -0.375   5.059  0.00  0.00    +0.166 HD
ATOM     46  CE2 TRP A   3      15.771  -1.689   3.483  0.00  0.00    +0.056 A 
ATOM     47  CZ2 TRP A   3      15.179  -2.790   4.089  0.00  0.00    +0.017 A 
ATOM     48  CH2 TRP A   3      14.697  -3.779   3.276  0.00  0.00    +0.001 A 
ATOM     49  CZ3 TRP A   3      14.782  -3.682   1.880  0.00  0.00    +0.000 A 
ATOM     50  CE3 TRP A   3      15.370  -2.587   1.273  0.00  0.00    +0.001 A 
ATOM     51  CD2 TRP A   3      15.863  -1.560   2.081  0.00  0.00    +0.013 A 
ENDBRANCH  41  42
ENDBRANCH   1  41
TORSDOF 20
REMARK  Name = ../refined-set-2016/4b35/4b35_pocket.pdb
REMARK  102 active torsions:
REMARK  status: ('A' for Active; 'I' for Inactive)
REMARK    1  A    between atoms: _1  and  _3
REMARK    2  A    between atoms: _3  and  _4
REMARK    3  A    between atoms: _3  and  _6
REMARK    4  A    between atoms: _9  and  _11
REMARK    5  A    between atoms: _11  and  _12
REMARK    6  A    between atoms: _11  and  _14
REMARK    7  A    between atoms: _14  and  _15
REMARK    8  A    between atoms: _15  and  _16
REMARK    9  A    between atoms: _18  and  _20
REMARK   10  A    between atoms: _20  and  _21
REMARK   11  A    between atoms: _20  and  _23
REMARK   12  A    between atoms: _23  and  _24
REMARK   13  A    between atoms: _34  and  _36
REMARK   14  A    between atoms: _36  and  _37
REMARK   15  A    between atoms: _36  and  _39
REMARK   16  A    between atoms: _39  and  _40
REMARK   17  A    between atoms: _43  and  _45
REMARK   18  A    between atoms: _45  and  _46
REMARK   19  A    between atoms: _45  and  _48
REMARK   20  A    between atoms: _48  and  _49
REMARK   21  A    between atoms: _52  and  _54
REMARK   22  A    between atoms: _54  and  _55
REMARK   23  A    between atoms: _54  and  _57
REMARK   24  A    between atoms: _57  and  _58
REMARK   25  A    between atoms: _61  and  _63
REMARK   26  A    between atoms: _63  and  _64
REMARK   27  A    between atoms: _67  and  _69
REMARK   28  A    between atoms: _69  and  _70
REMARK   29  A    between atoms: _69  and  _72
REMARK   30  A    between atoms: _72  and  _73
REMARK   31  A    between atoms: _78  and  _79
REMARK   32  A    between atoms: _81  and  _83
REMARK   33  A    between atoms: _83  and  _84
REMARK   34  A    between atoms: _87  and  _89
REMARK   35  A    between atoms: _89  and  _90
REMARK   36  A    between atoms: _89  and  _92
REMARK   37  A    between atoms: _92  and  _93
REMARK   38  A    between atoms: _93  and  _94
REMARK   39  A    between atoms: _94  and  _95
REMARK   40  A    between atoms: _104  and  _106
REMARK   41  A    between atoms: _106  and  _107
REMARK   42  A    between atoms: _106  and  _109
REMARK   43  A    between atoms: _109  and  _110
REMARK   44  A    between atoms: _115  and  _117
REMARK   45  A    between atoms: _117  and  _118
REMARK   46  A    between atoms: _117  and  _120
REMARK   47  A    between atoms: _120  and  _121
REMARK   48  A    between atoms: _121  and  _122
REMARK   49  A    between atoms: _127  and  _129
REMARK   50  A    between atoms: _129  and  _130
REMARK   51  A    between atoms: _129  and  _132
REMARK   52  A    between atoms: _132  and  _133
REMARK   53  A    between atoms: _133  and  _134
REMARK   54  A    between atoms: _136  and  _138
REMARK   55  A    between atoms: _138  and  _139
REMARK   56  A    between atoms: _138  and  _141
REMARK   57  A    between atoms: _141  and  _142
REMARK   58  A    between atoms: _145  and  _147
REMARK   59  A    between atoms: _147  and  _148
REMARK   60  A    between atoms: _147  and  _150
REMARK   61  A    between atoms: _150  and  _151
REMARK   62  A    between atoms: _154  and  _156
REMARK   63  A    between atoms: _156  and  _157
REMARK   64  A    between atoms: _156  and  _159
REMARK   65  A    between atoms: _162  and  _164
REMARK   66  A    between atoms: _164  and  _165
REMARK   67  A    between atoms: _164  and  _167
REMARK   68  A    between atoms: _167  and  _168
REMARK   69  A    between atoms: _168  and  _169
REMARK   70  A    between atoms: _174  and  _176
REMARK   71  A    between atoms: _176  and  _177
REMARK   72  A    between atoms: _176  and  _179
REMARK   73  A    between atoms: _179  and  _180
REMARK   74  A    between atoms: _180  and  _181
REMARK   75  A    between atoms: _186  and  _188
REMARK   76  A    between atoms: _188  and  _189
REMARK   77  A    between atoms: _192  and  _194
REMARK   78  A    between atoms: _194  and  _195
REMARK   79  A    between atoms: _194  and  _197
REMARK   80  A    between atoms: _197  and  _198
REMARK   81  A    between atoms: _198  and  _199
REMARK   82  A    between atoms: _202  and  _204
REMARK   83  A    between atoms: _204  and  _205
REMARK   84  A    between atoms: _204  and  _207
REMARK   85  A    between atoms: _207  and  _208
REMARK   86  A    between atoms: _211  and  _213
REMARK   87  A    between atoms: _213  and  _214
REMARK   88  A    between atoms: _213  and  _216
REMARK   89  A    between atoms: _216  and  _217
REMARK   90  A    between atoms: _217  and  _218
REMARK   91  A    between atoms: _220  and  _222
REMARK   92  A    between atoms: _222  and  _223
REMARK   93  A    between atoms: _222  and  _225
REMARK   94  A    between atoms: _225  and  _226
REMARK   95  A    between atoms: _229  and  _231
REMARK   96  A    between atoms: _231  and  _232
REMARK   97  A    between atoms: _231  and  _234
REMARK   98  A    between atoms: _234  and  _235
REMARK   99  A    between atoms: _238  and  _240
REMARK  100  A    between atoms: _240  and  _241
REMARK  101  A    between atoms: _240  and  _243
REMARK  102  A    between atoms: _243  and  _244
REMARK                            x       y       z     vdW  Elec       q    Type
REMARK                         _______ _______ _______ _____ _____    ______ ____
ROOT
ATOM      1  CA  TYR A   3      21.213   1.236  -0.638  0.00  0.00    +0.153 C 
ENDROOT
BRANCH   1   3
ATOM      2  C   ALA A   2      20.109   1.311  -2.818  0.00  0.00    +0.241 C 
ATOM      3  N   TYR A   3      21.200   1.107  -2.092  0.00  0.00    -0.297 N 
ATOM      4  H   TYR A   3      22.081   0.845  -2.578  0.00  0.00    +0.150 HD
ATOM      5  O   ALA A   2      19.053   1.729  -2.345  0.00  0.00    -0.273 OA
BRANCH   2   6
ATOM      6  CA  ALA A   2      20.218   0.973  -4.299  0.00  0.00    +0.149 C 
ATOM      7  CB  ALA A   2      19.900   2.182  -5.170  0.00  0.00    +0.031 C 
BRANCH   6  10
ATOM      8  C   ILE A   1      19.625  -1.376  -4.333  0.00  0.00    +0.238 C 
ATOM      9  O   ILE A   1      20.756  -1.720  -3.958  0.00  0.00    -0.274 OA
ATOM     10  N   ALA A   2      19.295  -0.112  -4.567  0.00  0.00    -0.297 N 
ATOM     11  H   ALA A   2      18.353   0.105  -4.951  0.00  0.00    +0.150 HD
BRANCH   8  12
ATOM     12  CA  ILE A   1      18.551  -2.427  -4.609  0.00  0.00    +0.145 C 
BRANCH  12  13
ATOM     13  N   ILE A   1      18.930  -3.174  -5.801  0.00  0.00    -0.238 NA
ATOM     14  H   ILE A   1      19.728  -3.839  -5.748  0.00  0.00    +0.142 HD
ENDBRANCH  12  13
BRANCH  12  15
ATOM     15  CB  ILE A   1      18.403  -3.332  -3.394  0.00  0.00    +0.025 C 
ATOM     16  CG2 ILE A   1      18.124  -2.479  -2.144  0.00  0.00    +0.002 C 
BRANCH  15  17
ATOM     17  CG1 ILE A   1      17.306  -4.374  -3.645  0.00  0.00    +0.002 C 
ATOM     18  CD1 ILE A   1      17.271  -5.488  -2.621  0.00  0.00    +0.000 C 
ENDBRANCH  15  17
ENDBRANCH  12  15
ENDBRANCH   8  12
ENDBRANCH   6  10
ENDBRANCH   2   6
ENDBRANCH   1   3
BRANCH   1  19
ATOM     19  C   TYR A   3      21.800   2.556  -0.157  0.00  0.00    +0.241 C 
ATOM     20  N   ALA A   4      21.139   3.196   0.798  0.00  0.00    -0.297 N 
ATOM     21  H   ALA A   4      20.207   2.844   1.096  0.00  0.00    +0.150 HD
ATOM     22  O   TYR A   3      22.847   2.991  -0.632  0.00  0.00    -0.273 OA
BRANCH  20  23
ATOM     23  CA  ALA A   4      21.691   4.382   1.439  0.00  0.00    +0.149 C 
ATOM     24  CB  ALA A   4      21.069   5.642   0.871  0.00  0.00    +0.031 C 
BRANCH  23  25
ATOM     25  C   ALA A   4      21.450   4.316   2.942  0.00  0.00    +0.241 C 
ATOM     26  N   ARG A   5      22.505   4.534   3.716  0.00  0.00    -0.298 N 
ATOM     27  H   ARG A   5      23.447   4.577   3.278  0.00  0.00    +0.150 HD
ATOM     28  O   ALA A   4      20.320   4.078   3.394  0.00  0.00    -0.273 OA
BRANCH  26  29
ATOM     29  CA  ARG A   5      22.394   4.714   5.147  0.00  0.00    +0.137 C 
BRANCH  29  30
ATOM     30  C   ARG A   5      22.109   6.186   5.435  0.00  0.00    +0.227 C 
ATOM     31  O   ARG A   5      22.781   7.071   4.888  0.00  0.00    -0.286 OA
ENDBRANCH  29  30
BRANCH  29  32
ATOM     32  CB  ARG A   5      23.701   4.291   5.818  0.00  0.00    +0.031 C 
BRANCH  32  33
ATOM     33  CG  ARG A   5      23.749   4.597   7.306  0.00  0.00    +0.045 C 
BRANCH  33  34
ATOM     34  CD  ARG A   5      22.871   3.647   8.102  0.00  0.00    +0.174 C 
BRANCH  34  35
ATOM     35  NE  ARG A   5      22.290   4.303   9.269  0.00  0.00    -0.265 N 
ATOM     36  CZ  ARG A   5      22.978   4.619  10.359  0.00  0.00    +0.342 C 
ATOM     37  NH2 ARG A   5      22.372   5.226  11.370  0.00  0.00    -0.292 N 
ATOM     38 HH21 ARG A   5      22.910   5.474  12.225  0.00  0.00    +0.255 HD
ATOM     39 HH22 ARG A   5      21.359   5.454  11.308  0.00  0.00    +0.255 HD
ATOM     40  NH1 ARG A   5      24.274   4.333  10.432  0.00  0.00    -0.292 N 
ATOM     41 HH11 ARG A   5      24.814   4.580  11.286  0.00  0.00    +0.255 HD
ATOM     42 HH12 ARG A   5      24.748   3.862   9.635  0.00  0.00    +0.255 HD
ATOM     43  HE  ARG A   5      21.277   4.537   9.245  0.00  0.00    +0.259 HD
ENDBRANCH  34  35
ENDBRANCH  33  34
ENDBRANCH  32  33
ENDBRANCH  29  32
ENDBRANCH  26  29
ENDBRANCH  23  25
ENDBRANCH  20  23
ENDBRANCH   1  19
BRANCH   1  44
ATOM     44  CB  TYR A   3      21.999   0.072  -0.017  0.00  0.00    +0.055 C 
BRANCH  44  45
ATOM     45  CG  TYR A   3      22.088   0.160   1.489  0.00  0.00    -0.020 A 
ATOM     46  CD2 TYR A   3      21.048  -0.301   2.294  0.00  0.00    -0.001 A 
ATOM     47  CE2 TYR A   3      21.122  -0.204   3.669  0.00  0.00    +0.036 A 
ATOM     48  CZ  TYR A   3      22.235   0.368   4.250  0.00  0.00    +0.134 A 
ATOM     49  CE1 TYR A   3      23.272   0.842   3.477  0.00  0.00    +0.036 A 
ATOM     50  CD1 TYR A   3      23.193   0.747   2.108  0.00  0.00    -0.001 A 
BRANCH  48  51
ATOM     51  OH  TYR A   3      22.305   0.477   5.615  0.00  0.00    -0.506 OA
ATOM     52  HH  TYR A   3      21.487   0.092   6.018  0.00  0.00    +0.292 HD
ENDBRANCH  48  51
ENDBRANCH  44  45
ENDBRANCH   1  44
TORSDOF 19
REMARK  Name = ../refined-set-2016/4b35/4b35_pocket.pdb
REMARK  102 active torsions:
REMARK  status: ('A' for Active; 'I' for Inactive)
REMARK    1  A    between atoms: _1  and  _3
REMARK    2  A    between atoms: _3  and  _4
REMARK    3  A    between atoms: _3  and  _6
REMARK    4  A    between atoms: _9  and  _11
REMARK    5  A    between atoms: _11  and  _12
REMARK    6  A    between atoms: _11  and  _14
REMARK    7  A    between atoms: _14  and  _15
REMARK    8  A    between atoms: _15  and  _16
REMARK    9  A    between atoms: _18  and  _20
REMARK   10  A    between atoms: _20  and  _21
REMARK   11  A    between atoms: _20  and  _23
REMARK   12  A    between atoms: _23  and  _24
REMARK   13  A    between atoms: _34  and  _36
REMARK   14  A    between atoms: _36  and  _37
REMARK   15  A    between atoms: _36  and  _39
REMARK   16  A    between atoms: _39  and  _40
REMARK   17  A    between atoms: _43  and  _45
REMARK   18  A    between atoms: _45  and  _46
REMARK   19  A    between atoms: _45  and  _48
REMARK   20  A    between atoms: _48  and  _49
REMARK   21  A    between atoms: _52  and  _54
REMARK   22  A    between atoms: _54  and  _55
REMARK   23  A    between atoms: _54  and  _57
REMARK   24  A    between atoms: _57  and  _58
REMARK   25  A    between atoms: _61  and  _63
REMARK   26  A    between atoms: _63  and  _64
REMARK   27  A    between atoms: _67  and  _69
REMARK   28  A    between atoms: _69  and  _70
REMARK   29  A    between atoms: _69  and  _72
REMARK   30  A    between atoms: _72  and  _73
REMARK   31  A    between atoms: _78  and  _79
REMARK   32  A    between atoms: _81  and  _83
REMARK   33  A    between atoms: _83  and  _84
REMARK   34  A    between atoms: _87  and  _89
REMARK   35  A    between atoms: _89  and  _90
REMARK   36  A    between atoms: _89  and  _92
REMARK   37  A    between atoms: _92  and  _93
REMARK   38  A    between atoms: _93  and  _94
REMARK   39  A    between atoms: _94  and  _95
REMARK   40  A    between atoms: _104  and  _106
REMARK   41  A    between atoms: _106  and  _107
REMARK   42  A    between atoms: _106  and  _109
REMARK   43  A    between atoms: _109  and  _110
REMARK   44  A    between atoms: _115  and  _117
REMARK   45  A    between atoms: _117  and  _118
REMARK   46  A    between atoms: _117  and  _120
REMARK   47  A    between atoms: _120  and  _121
REMARK   48  A    between atoms: _121  and  _122
REMARK   49  A    between atoms: _127  and  _129
REMARK   50  A    between atoms: _129  and  _130
REMARK   51  A    between atoms: _129  and  _132
REMARK   52  A    between atoms: _132  and  _133
REMARK   53  A    between atoms: _133  and  _134
REMARK   54  A    between atoms: _136  and  _138
REMARK   55  A    between atoms: _138  and  _139
REMARK   56  A    between atoms: _138  and  _141
REMARK   57  A    between atoms: _141  and  _142
REMARK   58  A    between atoms: _145  and  _147
REMARK   59  A    between atoms: _147  and  _148
REMARK   60  A    between atoms: _147  and  _150
REMARK   61  A    between atoms: _150  and  _151
REMARK   62  A    between atoms: _154  and  _156
REMARK   63  A    between atoms: _156  and  _157
REMARK   64  A    between atoms: _156  and  _159
REMARK   65  A    between atoms: _162  and  _164
REMARK   66  A    between atoms: _164  and  _165
REMARK   67  A    between atoms: _164  and  _167
REMARK   68  A    between atoms: _167  and  _168
REMARK   69  A    between atoms: _168  and  _169
REMARK   70  A    between atoms: _174  and  _176
REMARK   71  A    between atoms: _176  and  _177
REMARK   72  A    between atoms: _176  and  _179
REMARK   73  A    between atoms: _179  and  _180
REMARK   74  A    between atoms: _180  and  _181
REMARK   75  A    between atoms: _186  and  _188
REMARK   76  A    between atoms: _188  and  _189
REMARK   77  A    between atoms: _192  and  _194
REMARK   78  A    between atoms: _194  and  _195
REMARK   79  A    between atoms: _194  and  _197
REMARK   80  A    between atoms: _197  and  _198
REMARK   81  A    between atoms: _198  and  _199
REMARK   82  A    between atoms: _202  and  _204
REMARK   83  A    between atoms: _204  and  _205
REMARK   84  A    between atoms: _204  and  _207
REMARK   85  A    between atoms: _207  and  _208
REMARK   86  A    between atoms: _211  and  _213
REMARK   87  A    between atoms: _213  and  _214
REMARK   88  A    between atoms: _213  and  _216
REMARK   89  A    between atoms: _216  and  _217
REMARK   90  A    between atoms: _217  and  _218
REMARK   91  A    between atoms: _220  and  _222
REMARK   92  A    between atoms: _222  and  _223
REMARK   93  A    between atoms: _222  and  _225
REMARK   94  A    between atoms: _225  and  _226
REMARK   95  A    between atoms: _229  and  _231
REMARK   96  A    between atoms: _231  and  _232
REMARK   97  A    between atoms: _231  and  _234
REMARK   98  A    between atoms: _234  and  _235
REMARK   99  A    between atoms: _238  and  _240
REMARK  100  A    between atoms: _240  and  _241
REMARK  101  A    between atoms: _240  and  _243
REMARK  102  A    between atoms: _243  and  _244
REMARK                            x       y       z     vdW  Elec       q    Type
REMARK                         _______ _______ _______ _____ _____    ______ ____
ROOT
ATOM      1  CA  GLN A   7      15.310  14.761  -2.061  0.00  0.00    +0.149 C 
ENDROOT
BRANCH   1   3
ATOM      2  C   VAL A   6      14.791  12.488  -1.344  0.00  0.00    +0.241 C 
ATOM      3  N   GLN A   7      15.220  13.709  -1.049  0.00  0.00    -0.297 N 
ATOM      4  H   GLN A   7      15.500  13.924  -0.071  0.00  0.00    +0.150 HD
ATOM      5  O   VAL A   6      14.412  12.165  -2.474  0.00  0.00    -0.273 OA
BRANCH   2   6
ATOM      6  CA  VAL A   6      14.836  11.470  -0.212  0.00  0.00    +0.149 C 
BRANCH   6   8
ATOM      7  C   LEU A   5      17.239  11.237  -0.034  0.00  0.00    +0.241 C 
ATOM      8  N   VAL A   6      16.084  11.569   0.532  0.00  0.00    -0.297 N 
ATOM      9  H   VAL A   6      16.071  11.903   1.517  0.00  0.00    +0.150 HD
ATOM     10  O   LEU A   5      17.311  10.805  -1.184  0.00  0.00    -0.273 OA
BRANCH   7  11
ATOM     11  CA  LEU A   5      18.506  11.440   0.802  0.00  0.00    +0.149 C 
BRANCH  11  13
ATOM     12  C   LEU A   4      18.351  13.850   1.050  0.00  0.00    +0.241 C 
ATOM     13  N   LEU A   5      18.437  12.652   1.619  0.00  0.00    -0.297 N 
ATOM     14  H   LEU A   5      18.455  12.575   2.656  0.00  0.00    +0.150 HD
ATOM     15  O   LEU A   4      18.302  14.000  -0.177  0.00  0.00    -0.273 OA
BRANCH  12  16
ATOM     16  CA  LEU A   4      18.294  15.052   1.992  0.00  0.00    +0.149 C 
BRANCH  16  18
ATOM     17  C   MET A   3      16.173  14.487   3.063  0.00  0.00    +0.241 C 
ATOM     18  N   LEU A   4      17.467  14.781   3.164  0.00  0.00    -0.297 N 
ATOM     19  H   LEU A   4      17.903  14.819   4.108  0.00  0.00    +0.150 HD
ATOM     20  O   MET A   3      15.584  14.447   1.985  0.00  0.00    -0.273 OA
BRANCH  17  21
ATOM     21  CA  MET A   3      15.443  14.156   4.367  0.00  0.00    +0.149 C 
BRANCH  21  23
ATOM     22  C   GLN A   2      16.549  12.047   4.828  0.00  0.00    +0.241 C 
ATOM     23  N   MET A   3      16.255  13.288   5.205  0.00  0.00    -0.297 N 
ATOM     24  H   MET A   3      16.612  13.644   6.115  0.00  0.00    +0.150 HD
ATOM     25  O   GLN A   2      16.168  11.564   3.755  0.00  0.00    -0.273 OA
BRANCH  22  26
ATOM     26  CA  GLN A   2      17.418  11.246   5.786  0.00  0.00    +0.149 C 
BRANCH  26  28
ATOM     27  C   HIS A   1      19.417  12.606   5.461  0.00  0.00    +0.239 C 
ATOM     28  N   GLN A   2      18.537  12.045   6.285  0.00  0.00    -0.297 N 
ATOM     29  H   GLN A   2      18.647  12.178   7.311  0.00  0.00    +0.150 HD
ATOM     30  O   HIS A   1      19.358  12.479   4.246  0.00  0.00    -0.274 OA
BRANCH  27  31
ATOM     31  CA  HIS A   1      20.517  13.451   6.113  0.00  0.00    +0.151 C 
BRANCH  31  32
ATOM     32  N   HIS A   1      19.950  14.293   7.147  0.00  0.00    -0.238 NA
ATOM     33  H   HIS A   1      20.308  14.191   8.118  0.00  0.00    +0.142 HD
ENDBRANCH  31  32
BRANCH  31  34
ATOM     34  CB  HIS A   1      21.608  12.589   6.742  0.00  0.00    +0.074 C 
BRANCH  34  35
ATOM     35  CG  HIS A   1      22.370  11.755   5.768  0.00  0.00    +0.082 A 
ATOM     36  CD2 HIS A   1      22.928  10.529   5.912  0.00  0.00    +0.115 A 
ATOM     37  NE2 HIS A   1      23.544  10.233   4.720  0.00  0.00    -0.221 NA
ATOM     38  CE1 HIS A   1      23.373  11.234   3.881  0.00  0.00    +0.199 A 
ATOM     39  ND1 HIS A   1      22.667  12.174   4.496  0.00  0.00    -0.227 NA
ENDBRANCH  34  35
ENDBRANCH  31  34
ENDBRANCH  27  31
ENDBRANCH  26  28
BRANCH  26  40
ATOM     40  CB  GLN A   2      16.597  10.737   6.971  0.00  0.00    +0.039 C 
BRANCH  40  41
ATOM     41  CG  GLN A   2      15.373   9.892   6.625  0.00  0.00    +0.087 C 
BRANCH  41  42
ATOM     42  CD  GLN A   2      14.595   9.547   7.875  0.00  0.00    +0.219 C 
ATOM     43  NE2 GLN A   2      15.306   9.418   8.983  0.00  0.00    -0.329 N 
ATOM     44 HE21 GLN A   2      14.831   9.206   9.884  0.00  0.00    +0.145 HD
ATOM     45 HE22 GLN A   2      16.340   9.529   8.953  0.00  0.00    +0.145 HD
ATOM     46  OE1 GLN A   2      13.367   9.426   7.851  0.00  0.00    -0.275 OA
ENDBRANCH  41  42
ENDBRANCH  40  41
ENDBRANCH  26  40
ENDBRANCH  22  26
ENDBRANCH  21  23
BRANCH  21  47
ATOM     47  CB  MET A   3      15.045  15.418   5.137  0.00  0.00    +0.041 C 
BRANCH  47  48
ATOM     48  CG  MET A   3      14.201  15.113   6.368  0.00  0.00    +0.060 C 
BRANCH  48  49
ATOM     49  SD  MET A   3      13.687  16.596   7.248  0.00  0.00    -0.139 S 
ATOM     50  CE  MET A   3      12.794  17.453   5.948  0.00  0.00    +0.069 C 
ENDBRANCH  48  49
ENDBRANCH  47  48
ENDBRANCH  21  47
ENDBRANCH  17  21
ENDBRANCH  16  18
BRANCH  16  51
ATOM     51  CB  LEU A   4      19.708  15.432   2.436  0.00  0.00    +0.029 C 
BRANCH  51  52
ATOM     52  CG  LEU A   4      20.730  15.862   1.387  0.00  0.00    +0.002 C 
ATOM     53  CD2 LEU A   4      22.029  16.252   2.074  0.00  0.00    +0.000 C 
ATOM     54  CD1 LEU A   4      20.194  17.015   0.553  0.00  0.00    +0.000 C 
ENDBRANCH  51  52
ENDBRANCH  16  51
ENDBRANCH  12  16
ENDBRANCH  11  13
BRANCH  11  55
ATOM     55  CB  LEU A   5      18.814  10.203   1.659  0.00  0.00    +0.029 C 
BRANCH  55  56
ATOM     56  CG  LEU A   5      20.284  10.024   2.070  0.00  0.00    +0.002 C 
ATOM     57  CD2 LEU A   5      20.431   8.959   3.143  0.00  0.00    +0.000 C 
ATOM     58  CD1 LEU A   5      21.147   9.678   0.857  0.00  0.00    +0.000 C 
ENDBRANCH  55  56
ENDBRANCH  11  55
ENDBRANCH   7  11
ENDBRANCH   6   8
BRANCH   6  59
ATOM     59  CB  VAL A   6      13.618  11.598   0.714  0.00  0.00    +0.027 C 
ATOM     60  CG2 VAL A   6      13.456  10.317   1.553  0.00  0.00    +0.002 C 
ATOM     61  CG1 VAL A   6      12.358  11.905  -0.082  0.00  0.00    +0.002 C 
ENDBRANCH   6  59
ENDBRANCH   2   6
ENDBRANCH   1   3
BRANCH   1  62
ATOM     62  C   GLN A   7      16.243  14.358  -3.200  0.00  0.00    +0.241 C 
ATOM     63  N   GLN A   8      17.422  13.859  -2.843  0.00  0.00    -0.297 N 
ATOM     64  H   GLN A   8      17.623  13.722  -1.832  0.00  0.00    +0.150 HD
ATOM     65  O   GLN A   7      15.891  14.478  -4.370  0.00  0.00    -0.273 OA
BRANCH  63  66
ATOM     66  CA  GLN A   8      18.444  13.497  -3.818  0.00  0.00    +0.149 C 
BRANCH  66  67
ATOM     67  C   GLN A   8      18.120  12.225  -4.593  0.00  0.00    +0.241 C 
ATOM     68  N   ALA A   9      17.210  11.418  -4.052  0.00  0.00    -0.297 N 
ATOM     69  H   ALA A   9      16.782  11.675  -3.140  0.00  0.00    +0.150 HD
ATOM     70  O   GLN A   8      18.677  11.987  -5.672  0.00  0.00    -0.273 OA
BRANCH  68  71
ATOM     71  CA  ALA A   9      16.797  10.178  -4.709  0.00  0.00    +0.149 C 
ATOM     72  CB  ALA A   9      15.812   9.406  -3.839  0.00  0.00    +0.031 C 
BRANCH  71  73
ATOM     73  C   ALA A   9      16.183  10.436  -6.073  0.00  0.00    +0.241 C 
ATOM     74  N   GLU A  10      15.611  11.622  -6.259  0.00  0.00    -0.297 N 
ATOM     75  H   GLU A  10      15.646  12.331  -5.499  0.00  0.00    +0.150 HD
ATOM     76  O   ALA A   9      16.226   9.568  -6.944  0.00  0.00    -0.273 OA
BRANCH  74  77
ATOM     77  CA  GLU A  10      14.936  11.945  -7.511  0.00  0.00    +0.149 C 
BRANCH  77  78
ATOM     78  C   GLU A  10      15.862  11.809  -8.727  0.00  0.00    +0.241 C 
ATOM     79  N   ASP A  11      17.149  12.085  -8.530  0.00  0.00    -0.297 N 
ATOM     80  H   ASP A  11      17.458  12.399  -7.588  0.00  0.00    +0.150 HD
ATOM     81  O   GLU A  10      15.413  11.449  -9.813  0.00  0.00    -0.273 OA
BRANCH  79  82
ATOM     82  CA  ASP A  11      18.142  11.961  -9.596  0.00  0.00    +0.160 C 
BRANCH  82  83
ATOM     83  C   ASP A  11      18.216  10.545 -10.163  0.00  0.00    +0.241 C 
ATOM     84  N   MET A  12      18.341   9.549  -9.287  0.00  0.00    -0.297 N 
ATOM     85  H   MET A  12      18.390   9.763  -8.271  0.00  0.00    +0.150 HD
ATOM     86  O   ASP A  11      18.173  10.359 -11.382  0.00  0.00    -0.273 OA
BRANCH  84  87
ATOM     87  CA  MET A  12      18.410   8.160  -9.734  0.00  0.00    +0.149 C 
BRANCH  87  88
ATOM     88  C   MET A  12      17.075   7.731 -10.319  0.00  0.00    +0.241 C 
ATOM     89  N   ILE A  13      15.992   8.243  -9.746  0.00  0.00    -0.298 N 
ATOM     90  H   ILE A  13      16.099   8.896  -8.944  0.00  0.00    +0.150 HD
ATOM     91  O   MET A  12      17.029   6.959 -11.273  0.00  0.00    -0.273 OA
BRANCH  89  92
ATOM     92  CA  ILE A  13      14.665   7.907 -10.219  0.00  0.00    +0.137 C 
BRANCH  92  93
ATOM     93  C   ILE A  13      14.505   8.389 -11.661  0.00  0.00    +0.227 C 
ATOM     94  O   ILE A  13      14.029   7.648 -12.517  0.00  0.00    -0.286 OA
ENDBRANCH  92  93
BRANCH  92  95
ATOM     95  CB  ILE A  13      13.575   8.503  -9.300  0.00  0.00    +0.026 C 
ATOM     96  CG2 ILE A  13      12.213   8.446  -9.974  0.00  0.00    +0.002 C 
BRANCH  95  97
ATOM     97  CG1 ILE A  13      13.565   7.754  -7.957  0.00  0.00    +0.002 C 
ATOM     98  CD1 ILE A  13      12.837   8.502  -6.847  0.00  0.00    +0.000 C 
ENDBRANCH  95  97
ENDBRANCH  92  95
ENDBRANCH  89  92
ENDBRANCH  87  88
BRANCH  87  99
ATOM     99  CB  MET A  12      18.805   7.203  -8.604  0.00  0.00    +0.041 C 
BRANCH  99 100
ATOM    100  CG  MET A  12      19.158   5.797  -9.102  0.00  0.00    +0.060 C 
BRANCH 100 101
ATOM    101  SD  MET A  12      19.040   4.465  -7.885  0.00  0.00    -0.139 S 
ATOM    102  CE  MET A  12      19.924   3.166  -8.730  0.00  0.00    +0.069 C 
ENDBRANCH 100 101
ENDBRANCH  99 100
ENDBRANCH  87  99
ENDBRANCH  84  87
ENDBRANCH  82  83
BRANCH  82 103
ATOM    103  CB  ASP A  11      19.526  12.382  -9.099  0.00  0.00    +0.143 C 
BRANCH 103 104
ATOM    104  CG  ASP A  11      19.583  13.840  -8.705  0.00  0.00    +0.367 C 
ATOM    105  OD2 ASP A  11      20.434  14.189  -7.858  0.00  0.00    -0.246 OA
ATOM    106  OD1 ASP A  11      18.786  14.642  -9.245  0.00  0.00    -0.246 OA
ENDBRANCH 103 104
ENDBRANCH  82 103
ENDBRANCH  79  82
ENDBRANCH  77  78
BRANCH  77 107
ATOM    107  CB  GLU A  10      14.331  13.353  -7.452  0.00  0.00    +0.041 C 
BRANCH 107 108
ATOM    108  CG  GLU A  10      13.552  13.751  -8.698  0.00  0.00    +0.116 C 
BRANCH 108 109
ATOM    109  CD  GLU A  10      12.686  14.987  -8.484  0.00  0.00    +0.365 C 
ATOM    110  OE2 GLU A  10      12.830  15.659  -7.438  0.00  0.00    -0.246 OA
ATOM    111  OE1 GLU A  10      11.844  15.280  -9.351  0.00  0.00    -0.246 OA
ENDBRANCH 108 109
ENDBRANCH 107 108
ENDBRANCH  77 107
ENDBRANCH  74  77
ENDBRANCH  71  73
ENDBRANCH  68  71
ENDBRANCH  66  67
BRANCH  66 112
ATOM    112  CB  GLN A   8      19.806  13.380  -3.135  0.00  0.00    +0.039 C 
BRANCH 112 113
ATOM    113  CG  GLN A   8      20.345  14.732  -2.661  0.00  0.00    +0.087 C 
BRANCH 113 114
ATOM    114  CD  GLN A   8      21.494  14.595  -1.694  0.00  0.00    +0.219 C 
ATOM    115  NE2 GLN A   8      21.715  13.381  -1.208  0.00  0.00    -0.329 N 
ATOM    116 HE21 GLN A   8      22.482  13.227  -0.523  0.00  0.00    +0.145 HD
ATOM    117 HE22 GLN A   8      21.121  12.583  -1.512  0.00  0.00    +0.145 HD
ATOM    118  OE1 GLN A   8      22.169  15.579  -1.368  0.00  0.00    -0.275 OA
ENDBRANCH 113 114
ENDBRANCH 112 113
ENDBRANCH  66 112
ENDBRANCH  63  66
ENDBRANCH   1  62
BRANCH   1 119
ATOM    119  CB  GLN A   7      15.803  16.060  -1.425  0.00  0.00    +0.039 C 
BRANCH 119 120
ATOM    120  CG  GLN A   7      14.827  16.672  -0.431  0.00  0.00    +0.087 C 
BRANCH 120 121
ATOM    121  CD  GLN A   7      15.463  17.741   0.450  0.00  0.00    +0.219 C 
ATOM    122  OE1 GLN A   7      14.825  18.262   1.362  0.00  0.00    -0.275 OA
ATOM    123  NE2 GLN A   7      16.728  18.050   0.193  0.00  0.00    -0.329 N 
ATOM    124 HE21 GLN A   7      17.219  18.759   0.774  0.00  0.00    +0.145 HD
ATOM    125 HE22 GLN A   7      17.229  17.583  -0.590  0.00  0.00    +0.145 HD
ENDBRANCH 120 121
ENDBRANCH 119 120
ENDBRANCH   1 119
TORSDOF 55
REMARK  Name = ../refined-set-2016/4b35/4b35_pocket.pdb
REMARK  102 active torsions:
REMARK  status: ('A' for Active; 'I' for Inactive)
REMARK    1  A    between atoms: _1  and  _3
REMARK    2  A    between atoms: _3  and  _4
REMARK    3  A    between atoms: _3  and  _6
REMARK    4  A    between atoms: _9  and  _11
REMARK    5  A    between atoms: _11  and  _12
REMARK    6  A    between atoms: _11  and  _14
REMARK    7  A    between atoms: _14  and  _15
REMARK    8  A    between atoms: _15  and  _16
REMARK    9  A    between atoms: _18  and  _20
REMARK   10  A    between atoms: _20  and  _21
REMARK   11  A    between atoms: _20  and  _23
REMARK   12  A    between atoms: _23  and  _24
REMARK   13  A    between atoms: _34  and  _36
REMARK   14  A    between atoms: _36  and  _37
REMARK   15  A    between atoms: _36  and  _39
REMARK   16  A    between atoms: _39  and  _40
REMARK   17  A    between atoms: _43  and  _45
REMARK   18  A    between atoms: _45  and  _46
REMARK   19  A    between atoms: _45  and  _48
REMARK   20  A    between atoms: _48  and  _49
REMARK   21  A    between atoms: _52  and  _54
REMARK   22  A    between atoms: _54  and  _55
REMARK   23  A    between atoms: _54  and  _57
REMARK   24  A    between atoms: _57  and  _58
REMARK   25  A    between atoms: _61  and  _63
REMARK   26  A    between atoms: _63  and  _64
REMARK   27  A    between atoms: _67  and  _69
REMARK   28  A    between atoms: _69  and  _70
REMARK   29  A    between atoms: _69  and  _72
REMARK   30  A    between atoms: _72  and  _73
REMARK   31  A    between atoms: _78  and  _79
REMARK   32  A    between atoms: _81  and  _83
REMARK   33  A    between atoms: _83  and  _84
REMARK   34  A    between atoms: _87  and  _89
REMARK   35  A    between atoms: _89  and  _90
REMARK   36  A    between atoms: _89  and  _92
REMARK   37  A    between atoms: _92  and  _93
REMARK   38  A    between atoms: _93  and  _94
REMARK   39  A    between atoms: _94  and  _95
REMARK   40  A    between atoms: _104  and  _106
REMARK   41  A    between atoms: _106  and  _107
REMARK   42  A    between atoms: _106  and  _109
REMARK   43  A    between atoms: _109  and  _110
REMARK   44  A    between atoms: _115  and  _117
REMARK   45  A    between atoms: _117  and  _118
REMARK   46  A    between atoms: _117  and  _120
REMARK   47  A    between atoms: _120  and  _121
REMARK   48  A    between atoms: _121  and  _122
REMARK   49  A    between atoms: _127  and  _129
REMARK   50  A    between atoms: _129  and  _130
REMARK   51  A    between atoms: _129  and  _132
REMARK   52  A    between atoms: _132  and  _133
REMARK   53  A    between atoms: _133  and  _134
REMARK   54  A    between atoms: _136  and  _138
REMARK   55  A    between atoms: _138  and  _139
REMARK   56  A    between atoms: _138  and  _141
REMARK   57  A    between atoms: _141  and  _142
REMARK   58  A    between atoms: _145  and  _147
REMARK   59  A    between atoms: _147  and  _148
REMARK   60  A    between atoms: _147  and  _150
REMARK   61  A    between atoms: _150  and  _151
REMARK   62  A    between atoms: _154  and  _156
REMARK   63  A    between atoms: _156  and  _157
REMARK   64  A    between atoms: _156  and  _159
REMARK   65  A    between atoms: _162  and  _164
REMARK   66  A    between atoms: _164  and  _165
REMARK   67  A    between atoms: _164  and  _167
REMARK   68  A    between atoms: _167  and  _168
REMARK   69  A    between atoms: _168  and  _169
REMARK   70  A    between atoms: _174  and  _176
REMARK   71  A    between atoms: _176  and  _177
REMARK   72  A    between atoms: _176  and  _179
REMARK   73  A    between atoms: _179  and  _180
REMARK   74  A    between atoms: _180  and  _181
REMARK   75  A    between atoms: _186  and  _188
REMARK   76  A    between atoms: _188  and  _189
REMARK   77  A    between atoms: _192  and  _194
REMARK   78  A    between atoms: _194  and  _195
REMARK   79  A    between atoms: _194  and  _197
REMARK   80  A    between atoms: _197  and  _198
REMARK   81  A    between atoms: _198  and  _199
REMARK   82  A    between atoms: _202  and  _204
REMARK   83  A    between atoms: _204  and  _205
REMARK   84  A    between atoms: _204  and  _207
REMARK   85  A    between atoms: _207  and  _208
REMARK   86  A    between atoms: _211  and  _213
REMARK   87  A    between atoms: _213  and  _214
REMARK   88  A    between atoms: _213  and  _216
REMARK   89  A    between atoms: _216  and  _217
REMARK   90  A    between atoms: _217  and  _218
REMARK   91  A    between atoms: _220  and  _222
REMARK   92  A    between atoms: _222  and  _223
REMARK   93  A    between atoms: _222  and  _225
REMARK   94  A    between atoms: _225  and  _226
REMARK   95  A    between atoms: _229  and  _231
REMARK   96  A    between atoms: _231  and  _232
REMARK   97  A    between atoms: _231  and  _234
REMARK   98  A    between atoms: _234  and  _235
REMARK   99  A    between atoms: _238  and  _240
REMARK  100  A    between atoms: _240  and  _241
REMARK  101  A    between atoms: _240  and  _243
REMARK  102  A    between atoms: _243  and  _244
REMARK                            x       y       z     vdW  Elec       q    Type
REMARK                         _______ _______ _______ _____ _____    ______ ____
ROOT
ATOM      1  C   LEU A   1      10.980   3.029  -0.807  0.00  0.00    +0.238 C 
ATOM      2  N   ILE A   2      11.944   2.474  -0.086  0.00  0.00    -0.298 N 
ATOM      3  H   ILE A   2      12.867   2.300  -0.531  0.00  0.00    +0.150 HD
ATOM      4  O   LEU A   1       9.849   3.241  -0.372  0.00  0.00    -0.274 OA
ENDROOT
BRANCH   1   5
ATOM      5  CA  LEU A   1      11.321   3.326  -2.257  0.00  0.00    +0.145 C 
BRANCH   5   6
ATOM      6  N   LEU A   1      10.426   2.518  -3.059  0.00  0.00    -0.238 NA
ATOM      7  H   LEU A   1       9.400   2.632  -2.929  0.00  0.00    +0.142 HD
ENDBRANCH   5   6
BRANCH   5   8
ATOM      8  CB  LEU A   1      11.136   4.812  -2.566  0.00  0.00    +0.026 C 
BRANCH   8   9
ATOM      9  CG  LEU A   1      11.798   5.842  -1.652  0.00  0.00    +0.002 C 
ATOM     10  CD2 LEU A   1      13.294   5.615  -1.490  0.00  0.00    +0.000 C 
ATOM     11  CD1 LEU A   1      11.506   7.245  -2.195  0.00  0.00    +0.000 C 
ENDBRANCH   8   9
ENDBRANCH   5   8
ENDBRANCH   1   5
BRANCH   2  12
ATOM     12  CA  ILE A   2      11.755   2.102   1.302  0.00  0.00    +0.137 C 
BRANCH  12  13
ATOM     13  C   ILE A   2      12.448   3.093   2.218  0.00  0.00    +0.227 C 
ATOM     14  O   ILE A   2      13.592   3.486   1.959  0.00  0.00    -0.286 OA
ENDBRANCH  12  13
BRANCH  12  15
ATOM     15  CB  ILE A   2      12.321   0.683   1.528  0.00  0.00    +0.026 C 
ATOM     16  CG2 ILE A   2      12.566   0.399   3.025  0.00  0.00    +0.002 C 
BRANCH  15  17
ATOM     17  CG1 ILE A   2      11.383  -0.361   0.919  0.00  0.00    +0.002 C 
ATOM     18  CD1 ILE A   2      12.083  -1.689   0.638  0.00  0.00    +0.000 C 
ENDBRANCH  15  17
ENDBRANCH  12  15
ENDBRANCH   2  12
TORSDOF 8
REMARK  Name = ../refined-set-2016/4b35/4b35_pocket.pdb
REMARK  102 active torsions:
REMARK  status: ('A' for Active; 'I' for Inactive)
REMARK    1  A    between atoms: _1  and  _3
REMARK    2  A    between atoms: _3  and  _4
REMARK    3  A    between atoms: _3  and  _6
REMARK    4  A    between atoms: _9  and  _11
REMARK    5  A    between atoms: _11  and  _12
REMARK    6  A    between atoms: _11  and  _14
REMARK    7  A    between atoms: _14  and  _15
REMARK    8  A    between atoms: _15  and  _16
REMARK    9  A    between atoms: _18  and  _20
REMARK   10  A    between atoms: _20  and  _21
REMARK   11  A    between atoms: _20  and  _23
REMARK   12  A    between atoms: _23  and  _24
REMARK   13  A    between atoms: _34  and  _36
REMARK   14  A    between atoms: _36  and  _37
REMARK   15  A    between atoms: _36  and  _39
REMARK   16  A    between atoms: _39  and  _40
REMARK   17  A    between atoms: _43  and  _45
REMARK   18  A    between atoms: _45  and  _46
REMARK   19  A    between atoms: _45  and  _48
REMARK   20  A    between atoms: _48  and  _49
REMARK   21  A    between atoms: _52  and  _54
REMARK   22  A    between atoms: _54  and  _55
REMARK   23  A    between atoms: _54  and  _57
REMARK   24  A    between atoms: _57  and  _58
REMARK   25  A    between atoms: _61  and  _63
REMARK   26  A    between atoms: _63  and  _64
REMARK   27  A    between atoms: _67  and  _69
REMARK   28  A    between atoms: _69  and  _70
REMARK   29  A    between atoms: _69  and  _72
REMARK   30  A    between atoms: _72  and  _73
REMARK   31  A    between atoms: _78  and  _79
REMARK   32  A    between atoms: _81  and  _83
REMARK   33  A    between atoms: _83  and  _84
REMARK   34  A    between atoms: _87  and  _89
REMARK   35  A    between atoms: _89  and  _90
REMARK   36  A    between atoms: _89  and  _92
REMARK   37  A    between atoms: _92  and  _93
REMARK   38  A    between atoms: _93  and  _94
REMARK   39  A    between atoms: _94  and  _95
REMARK   40  A    between atoms: _104  and  _106
REMARK   41  A    between atoms: _106  and  _107
REMARK   42  A    between atoms: _106  and  _109
REMARK   43  A    between atoms: _109  and  _110
REMARK   44  A    between atoms: _115  and  _117
REMARK   45  A    between atoms: _117  and  _118
REMARK   46  A    between atoms: _117  and  _120
REMARK   47  A    between atoms: _120  and  _121
REMARK   48  A    between atoms: _121  and  _122
REMARK   49  A    between atoms: _127  and  _129
REMARK   50  A    between atoms: _129  and  _130
REMARK   51  A    between atoms: _129  and  _132
REMARK   52  A    between atoms: _132  and  _133
REMARK   53  A    between atoms: _133  and  _134
REMARK   54  A    between atoms: _136  and  _138
REMARK   55  A    between atoms: _138  and  _139
REMARK   56  A    between atoms: _138  and  _141
REMARK   57  A    between atoms: _141  and  _142
REMARK   58  A    between atoms: _145  and  _147
REMARK   59  A    between atoms: _147  and  _148
REMARK   60  A    between atoms: _147  and  _150
REMARK   61  A    between atoms: _150  and  _151
REMARK   62  A    between atoms: _154  and  _156
REMARK   63  A    between atoms: _156  and  _157
REMARK   64  A    between atoms: _156  and  _159
REMARK   65  A    between atoms: _162  and  _164
REMARK   66  A    between atoms: _164  and  _165
REMARK   67  A    between atoms: _164  and  _167
REMARK   68  A    between atoms: _167  and  _168
REMARK   69  A    between atoms: _168  and  _169
REMARK   70  A    between atoms: _174  and  _176
REMARK   71  A    between atoms: _176  and  _177
REMARK   72  A    between atoms: _176  and  _179
REMARK   73  A    between atoms: _179  and  _180
REMARK   74  A    between atoms: _180  and  _181
REMARK   75  A    between atoms: _186  and  _188
REMARK   76  A    between atoms: _188  and  _189
REMARK   77  A    between atoms: _192  and  _194
REMARK   78  A    between atoms: _194  and  _195
REMARK   79  A    between atoms: _194  and  _197
REMARK   80  A    between atoms: _197  and  _198
REMARK   81  A    between atoms: _198  and  _199
REMARK   82  A    between atoms: _202  and  _204
REMARK   83  A    between atoms: _204  and  _205
REMARK   84  A    between atoms: _204  and  _207
REMARK   85  A    between atoms: _207  and  _208
REMARK   86  A    between atoms: _211  and  _213
REMARK   87  A    between atoms: _213  and  _214
REMARK   88  A    between atoms: _213  and  _216
REMARK   89  A    between atoms: _216  and  _217
REMARK   90  A    between atoms: _217  and  _218
REMARK   91  A    between atoms: _220  and  _222
REMARK   92  A    between atoms: _222  and  _223
REMARK   93  A    between atoms: _222  and  _225
REMARK   94  A    between atoms: _225  and  _226
REMARK   95  A    between atoms: _229  and  _231
REMARK   96  A    between atoms: _231  and  _232
REMARK   97  A    between atoms: _231  and  _234
REMARK   98  A    between atoms: _234  and  _235
REMARK   99  A    between atoms: _238  and  _240
REMARK  100  A    between atoms: _240  and  _241
REMARK  101  A    between atoms: _240  and  _243
REMARK  102  A    between atoms: _243  and  _244
REMARK                            x       y       z     vdW  Elec       q    Type
REMARK                         _______ _______ _______ _____ _____    ______ ____
ROOT
ATOM      1  O   HOH     1      17.328   1.379  -8.018  0.00  0.00    +0.000 OA
ENDROOT
TORSDOF 0
REMARK  Name = ../refined-set-2016/4b35/4b35_pocket.pdb
REMARK  102 active torsions:
REMARK  status: ('A' for Active; 'I' for Inactive)
REMARK    1  A    between atoms: _1  and  _3
REMARK    2  A    between atoms: _3  and  _4
REMARK    3  A    between atoms: _3  and  _6
REMARK    4  A    between atoms: _9  and  _11
REMARK    5  A    between atoms: _11  and  _12
REMARK    6  A    between atoms: _11  and  _14
REMARK    7  A    between atoms: _14  and  _15
REMARK    8  A    between atoms: _15  and  _16
REMARK    9  A    between atoms: _18  and  _20
REMARK   10  A    between atoms: _20  and  _21
REMARK   11  A    between atoms: _20  and  _23
REMARK   12  A    between atoms: _23  and  _24
REMARK   13  A    between atoms: _34  and  _36
REMARK   14  A    between atoms: _36  and  _37
REMARK   15  A    between atoms: _36  and  _39
REMARK   16  A    between atoms: _39  and  _40
REMARK   17  A    between atoms: _43  and  _45
REMARK   18  A    between atoms: _45  and  _46
REMARK   19  A    between atoms: _45  and  _48
REMARK   20  A    between atoms: _48  and  _49
REMARK   21  A    between atoms: _52  and  _54
REMARK   22  A    between atoms: _54  and  _55
REMARK   23  A    between atoms: _54  and  _57
REMARK   24  A    between atoms: _57  and  _58
REMARK   25  A    between atoms: _61  and  _63
REMARK   26  A    between atoms: _63  and  _64
REMARK   27  A    between atoms: _67  and  _69
REMARK   28  A    between atoms: _69  and  _70
REMARK   29  A    between atoms: _69  and  _72
REMARK   30  A    between atoms: _72  and  _73
REMARK   31  A    between atoms: _78  and  _79
REMARK   32  A    between atoms: _81  and  _83
REMARK   33  A    between atoms: _83  and  _84
REMARK   34  A    between atoms: _87  and  _89
REMARK   35  A    between atoms: _89  and  _90
REMARK   36  A    between atoms: _89  and  _92
REMARK   37  A    between atoms: _92  and  _93
REMARK   38  A    between atoms: _93  and  _94
REMARK   39  A    between atoms: _94  and  _95
REMARK   40  A    between atoms: _104  and  _106
REMARK   41  A    between atoms: _106  and  _107
REMARK   42  A    between atoms: _106  and  _109
REMARK   43  A    between atoms: _109  and  _110
REMARK   44  A    between atoms: _115  and  _117
REMARK   45  A    between atoms: _117  and  _118
REMARK   46  A    between atoms: _117  and  _120
REMARK   47  A    between atoms: _120  and  _121
REMARK   48  A    between atoms: _121  and  _122
REMARK   49  A    between atoms: _127  and  _129
REMARK   50  A    between atoms: _129  and  _130
REMARK   51  A    between atoms: _129  and  _132
REMARK   52  A    between atoms: _132  and  _133
REMARK   53  A    between atoms: _133  and  _134
REMARK   54  A    between atoms: _136  and  _138
REMARK   55  A    between atoms: _138  and  _139
REMARK   56  A    between atoms: _138  and  _141
REMARK   57  A    between atoms: _141  and  _142
REMARK   58  A    between atoms: _145  and  _147
REMARK   59  A    between atoms: _147  and  _148
REMARK   60  A    between atoms: _147  and  _150
REMARK   61  A    between atoms: _150  and  _151
REMARK   62  A    between atoms: _154  and  _156
REMARK   63  A    between atoms: _156  and  _157
REMARK   64  A    between atoms: _156  and  _159
REMARK   65  A    between atoms: _162  and  _164
REMARK   66  A    between atoms: _164  and  _165
REMARK   67  A    between atoms: _164  and  _167
REMARK   68  A    between atoms: _167  and  _168
REMARK   69  A    between atoms: _168  and  _169
REMARK   70  A    between atoms: _174  and  _176
REMARK   71  A    between atoms: _176  and  _177
REMARK   72  A    between atoms: _176  and  _179
REMARK   73  A    between atoms: _179  and  _180
REMARK   74  A    between atoms: _180  and  _181
REMARK   75  A    between atoms: _186  and  _188
REMARK   76  A    between atoms: _188  and  _189
REMARK   77  A    between atoms: _192  and  _194
REMARK   78  A    between atoms: _194  and  _195
REMARK   79  A    between atoms: _194  and  _197
REMARK   80  A    between atoms: _197  and  _198
REMARK   81  A    between atoms: _198  and  _199
REMARK   82  A    between atoms: _202  and  _204
REMARK   83  A    between atoms: _204  and  _205
REMARK   84  A    between atoms: _204  and  _207
REMARK   85  A    between atoms: _207  and  _208
REMARK   86  A    between atoms: _211  and  _213
REMARK   87  A    between atoms: _213  and  _214
REMARK   88  A    between atoms: _213  and  _216
REMARK   89  A    between atoms: _216  and  _217
REMARK   90  A    between atoms: _217  and  _218
REMARK   91  A    between atoms: _220  and  _222
REMARK   92  A    between atoms: _222  and  _223
REMARK   93  A    between atoms: _222  and  _225
REMARK   94  A    between atoms: _225  and  _226
REMARK   95  A    between atoms: _229  and  _231
REMARK   96  A    between atoms: _231  and  _232
REMARK   97  A    between atoms: _231  and  _234
REMARK   98  A    between atoms: _234  and  _235
REMARK   99  A    between atoms: _238  and  _240
REMARK  100  A    between atoms: _240  and  _241
REMARK  101  A    between atoms: _240  and  _243
REMARK  102  A    between atoms: _243  and  _244
REMARK                            x       y       z     vdW  Elec       q    Type
REMARK                         _______ _______ _______ _____ _____    ______ ____
ROOT
ATOM      1  O   HOH     1      19.528   0.211  -9.202  0.00  0.00    +0.000 OA
ENDROOT
TORSDOF 0
REMARK  Name = ../refined-set-2016/4b35/4b35_pocket.pdb
REMARK  102 active torsions:
REMARK  status: ('A' for Active; 'I' for Inactive)
REMARK    1  A    between atoms: _1  and  _3
REMARK    2  A    between atoms: _3  and  _4
REMARK    3  A    between atoms: _3  and  _6
REMARK    4  A    between atoms: _9  and  _11
REMARK    5  A    between atoms: _11  and  _12
REMARK    6  A    between atoms: _11  and  _14
REMARK    7  A    between atoms: _14  and  _15
REMARK    8  A    between atoms: _15  and  _16
REMARK    9  A    between atoms: _18  and  _20
REMARK   10  A    between atoms: _20  and  _21
REMARK   11  A    between atoms: _20  and  _23
REMARK   12  A    between atoms: _23  and  _24
REMARK   13  A    between atoms: _34  and  _36
REMARK   14  A    between atoms: _36  and  _37
REMARK   15  A    between atoms: _36  and  _39
REMARK   16  A    between atoms: _39  and  _40
REMARK   17  A    between atoms: _43  and  _45
REMARK   18  A    between atoms: _45  and  _46
REMARK   19  A    between atoms: _45  and  _48
REMARK   20  A    between atoms: _48  and  _49
REMARK   21  A    between atoms: _52  and  _54
REMARK   22  A    between atoms: _54  and  _55
REMARK   23  A    between atoms: _54  and  _57
REMARK   24  A    between atoms: _57  and  _58
REMARK   25  A    between atoms: _61  and  _63
REMARK   26  A    between atoms: _63  and  _64
REMARK   27  A    between atoms: _67  and  _69
REMARK   28  A    between atoms: _69  and  _70
REMARK   29  A    between atoms: _69  and  _72
REMARK   30  A    between atoms: _72  and  _73
REMARK   31  A    between atoms: _78  and  _79
REMARK   32  A    between atoms: _81  and  _83
REMARK   33  A    between atoms: _83  and  _84
REMARK   34  A    between atoms: _87  and  _89
REMARK   35  A    between atoms: _89  and  _90
REMARK   36  A    between atoms: _89  and  _92
REMARK   37  A    between atoms: _92  and  _93
REMARK   38  A    between atoms: _93  and  _94
REMARK   39  A    between atoms: _94  and  _95
REMARK   40  A    between atoms: _104  and  _106
REMARK   41  A    between atoms: _106  and  _107
REMARK   42  A    between atoms: _106  and  _109
REMARK   43  A    between atoms: _109  and  _110
REMARK   44  A    between atoms: _115  and  _117
REMARK   45  A    between atoms: _117  and  _118
REMARK   46  A    between atoms: _117  and  _120
REMARK   47  A    between atoms: _120  and  _121
REMARK   48  A    between atoms: _121  and  _122
REMARK   49  A    between atoms: _127  and  _129
REMARK   50  A    between atoms: _129  and  _130
REMARK   51  A    between atoms: _129  and  _132
REMARK   52  A    between atoms: _132  and  _133
REMARK   53  A    between atoms: _133  and  _134
REMARK   54  A    between atoms: _136  and  _138
REMARK   55  A    between atoms: _138  and  _139
REMARK   56  A    between atoms: _138  and  _141
REMARK   57  A    between atoms: _141  and  _142
REMARK   58  A    between atoms: _145  and  _147
REMARK   59  A    between atoms: _147  and  _148
REMARK   60  A    between atoms: _147  and  _150
REMARK   61  A    between atoms: _150  and  _151
REMARK   62  A    between atoms: _154  and  _156
REMARK   63  A    between atoms: _156  and  _157
REMARK   64  A    between atoms: _156  and  _159
REMARK   65  A    between atoms: _162  and  _164
REMARK   66  A    between atoms: _164  and  _165
REMARK   67  A    between atoms: _164  and  _167
REMARK   68  A    between atoms: _167  and  _168
REMARK   69  A    between atoms: _168  and  _169
REMARK   70  A    between atoms: _174  and  _176
REMARK   71  A    between atoms: _176  and  _177
REMARK   72  A    between atoms: _176  and  _179
REMARK   73  A    between atoms: _179  and  _180
REMARK   74  A    between atoms: _180  and  _181
REMARK   75  A    between atoms: _186  and  _188
REMARK   76  A    between atoms: _188  and  _189
REMARK   77  A    between atoms: _192  and  _194
REMARK   78  A    between atoms: _194  and  _195
REMARK   79  A    between atoms: _194  and  _197
REMARK   80  A    between atoms: _197  and  _198
REMARK   81  A    between atoms: _198  and  _199
REMARK   82  A    between atoms: _202  and  _204
REMARK   83  A    between atoms: _204  and  _205
REMARK   84  A    between atoms: _204  and  _207
REMARK   85  A    between atoms: _207  and  _208
REMARK   86  A    between atoms: _211  and  _213
REMARK   87  A    between atoms: _213  and  _214
REMARK   88  A    between atoms: _213  and  _216
REMARK   89  A    between atoms: _216  and  _217
REMARK   90  A    between atoms: _217  and  _218
REMARK   91  A    between atoms: _220  and  _222
REMARK   92  A    between atoms: _222  and  _223
REMARK   93  A    between atoms: _222  and  _225
REMARK   94  A    between atoms: _225  and  _226
REMARK   95  A    between atoms: _229  and  _231
REMARK   96  A    between atoms: _231  and  _232
REMARK   97  A    between atoms: _231  and  _234
REMARK   98  A    between atoms: _234  and  _235
REMARK   99  A    between atoms: _238  and  _240
REMARK  100  A    between atoms: _240  and  _241
REMARK  101  A    between atoms: _240  and  _243
REMARK  102  A    between atoms: _243  and  _244
REMARK                            x       y       z     vdW  Elec       q    Type
REMARK                         _______ _______ _______ _____ _____    ______ ____
ROOT
ATOM      1  O   HOH     1      23.658  -3.502  -0.731  0.00  0.00    +0.000 OA
ENDROOT
TORSDOF 0
REMARK  Name = ../refined-set-2016/4b35/4b35_pocket.pdb
REMARK  102 active torsions:
REMARK  status: ('A' for Active; 'I' for Inactive)
REMARK    1  A    between atoms: _1  and  _3
REMARK    2  A    between atoms: _3  and  _4
REMARK    3  A    between atoms: _3  and  _6
REMARK    4  A    between atoms: _9  and  _11
REMARK    5  A    between atoms: _11  and  _12
REMARK    6  A    between atoms: _11  and  _14
REMARK    7  A    between atoms: _14  and  _15
REMARK    8  A    between atoms: _15  and  _16
REMARK    9  A    between atoms: _18  and  _20
REMARK   10  A    between atoms: _20  and  _21
REMARK   11  A    between atoms: _20  and  _23
REMARK   12  A    between atoms: _23  and  _24
REMARK   13  A    between atoms: _34  and  _36
REMARK   14  A    between atoms: _36  and  _37
REMARK   15  A    between atoms: _36  and  _39
REMARK   16  A    between atoms: _39  and  _40
REMARK   17  A    between atoms: _43  and  _45
REMARK   18  A    between atoms: _45  and  _46
REMARK   19  A    between atoms: _45  and  _48
REMARK   20  A    between atoms: _48  and  _49
REMARK   21  A    between atoms: _52  and  _54
REMARK   22  A    between atoms: _54  and  _55
REMARK   23  A    between atoms: _54  and  _57
REMARK   24  A    between atoms: _57  and  _58
REMARK   25  A    between atoms: _61  and  _63
REMARK   26  A    between atoms: _63  and  _64
REMARK   27  A    between atoms: _67  and  _69
REMARK   28  A    between atoms: _69  and  _70
REMARK   29  A    between atoms: _69  and  _72
REMARK   30  A    between atoms: _72  and  _73
REMARK   31  A    between atoms: _78  and  _79
REMARK   32  A    between atoms: _81  and  _83
REMARK   33  A    between atoms: _83  and  _84
REMARK   34  A    between atoms: _87  and  _89
REMARK   35  A    between atoms: _89  and  _90
REMARK   36  A    between atoms: _89  and  _92
REMARK   37  A    between atoms: _92  and  _93
REMARK   38  A    between atoms: _93  and  _94
REMARK   39  A    between atoms: _94  and  _95
REMARK   40  A    between atoms: _104  and  _106
REMARK   41  A    between atoms: _106  and  _107
REMARK   42  A    between atoms: _106  and  _109
REMARK   43  A    between atoms: _109  and  _110
REMARK   44  A    between atoms: _115  and  _117
REMARK   45  A    between atoms: _117  and  _118
REMARK   46  A    between atoms: _117  and  _120
REMARK   47  A    between atoms: _120  and  _121
REMARK   48  A    between atoms: _121  and  _122
REMARK   49  A    between atoms: _127  and  _129
REMARK   50  A    between atoms: _129  and  _130
REMARK   51  A    between atoms: _129  and  _132
REMARK   52  A    between atoms: _132  and  _133
REMARK   53  A    between atoms: _133  and  _134
REMARK   54  A    between atoms: _136  and  _138
REMARK   55  A    between atoms: _138  and  _139
REMARK   56  A    between atoms: _138  and  _141
REMARK   57  A    between atoms: _141  and  _142
REMARK   58  A    between atoms: _145  and  _147
REMARK   59  A    between atoms: _147  and  _148
REMARK   60  A    between atoms: _147  and  _150
REMARK   61  A    between atoms: _150  and  _151
REMARK   62  A    between atoms: _154  and  _156
REMARK   63  A    between atoms: _156  and  _157
REMARK   64  A    between atoms: _156  and  _159
REMARK   65  A    between atoms: _162  and  _164
REMARK   66  A    between atoms: _164  and  _165
REMARK   67  A    between atoms: _164  and  _167
REMARK   68  A    between atoms: _167  and  _168
REMARK   69  A    between atoms: _168  and  _169
REMARK   70  A    between atoms: _174  and  _176
REMARK   71  A    between atoms: _176  and  _177
REMARK   72  A    between atoms: _176  and  _179
REMARK   73  A    between atoms: _179  and  _180
REMARK   74  A    between atoms: _180  and  _181
REMARK   75  A    between atoms: _186  and  _188
REMARK   76  A    between atoms: _188  and  _189
REMARK   77  A    between atoms: _192  and  _194
REMARK   78  A    between atoms: _194  and  _195
REMARK   79  A    between atoms: _194  and  _197
REMARK   80  A    between atoms: _197  and  _198
REMARK   81  A    between atoms: _198  and  _199
REMARK   82  A    between atoms: _202  and  _204
REMARK   83  A    between atoms: _204  and  _205
REMARK   84  A    between atoms: _204  and  _207
REMARK   85  A    between atoms: _207  and  _208
REMARK   86  A    between atoms: _211  and  _213
REMARK   87  A    between atoms: _213  and  _214
REMARK   88  A    between atoms: _213  and  _216
REMARK   89  A    between atoms: _216  and  _217
REMARK   90  A    between atoms: _217  and  _218
REMARK   91  A    between atoms: _220  and  _222
REMARK   92  A    between atoms: _222  and  _223
REMARK   93  A    between atoms: _222  and  _225
REMARK   94  A    between atoms: _225  and  _226
REMARK   95  A    between atoms: _229  and  _231
REMARK   96  A    between atoms: _231  and  _232
REMARK   97  A    between atoms: _231  and  _234
REMARK   98  A    between atoms: _234  and  _235
REMARK   99  A    between atoms: _238  and  _240
REMARK  100  A    between atoms: _240  and  _241
REMARK  101  A    between atoms: _240  and  _243
REMARK  102  A    between atoms: _243  and  _244
REMARK                            x       y       z     vdW  Elec       q    Type
REMARK                         _______ _______ _______ _____ _____    ______ ____
ROOT
ATOM      1  O   HOH     1      25.388  -3.476  -5.736  0.00  0.00    +0.000 OA
ENDROOT
TORSDOF 0
REMARK  Name = ../refined-set-2016/4b35/4b35_pocket.pdb
REMARK  102 active torsions:
REMARK  status: ('A' for Active; 'I' for Inactive)
REMARK    1  A    between atoms: _1  and  _3
REMARK    2  A    between atoms: _3  and  _4
REMARK    3  A    between atoms: _3  and  _6
REMARK    4  A    between atoms: _9  and  _11
REMARK    5  A    between atoms: _11  and  _12
REMARK    6  A    between atoms: _11  and  _14
REMARK    7  A    between atoms: _14  and  _15
REMARK    8  A    between atoms: _15  and  _16
REMARK    9  A    between atoms: _18  and  _20
REMARK   10  A    between atoms: _20  and  _21
REMARK   11  A    between atoms: _20  and  _23
REMARK   12  A    between atoms: _23  and  _24
REMARK   13  A    between atoms: _34  and  _36
REMARK   14  A    between atoms: _36  and  _37
REMARK   15  A    between atoms: _36  and  _39
REMARK   16  A    between atoms: _39  and  _40
REMARK   17  A    between atoms: _43  and  _45
REMARK   18  A    between atoms: _45  and  _46
REMARK   19  A    between atoms: _45  and  _48
REMARK   20  A    between atoms: _48  and  _49
REMARK   21  A    between atoms: _52  and  _54
REMARK   22  A    between atoms: _54  and  _55
REMARK   23  A    between atoms: _54  and  _57
REMARK   24  A    between atoms: _57  and  _58
REMARK   25  A    between atoms: _61  and  _63
REMARK   26  A    between atoms: _63  and  _64
REMARK   27  A    between atoms: _67  and  _69
REMARK   28  A    between atoms: _69  and  _70
REMARK   29  A    between atoms: _69  and  _72
REMARK   30  A    between atoms: _72  and  _73
REMARK   31  A    between atoms: _78  and  _79
REMARK   32  A    between atoms: _81  and  _83
REMARK   33  A    between atoms: _83  and  _84
REMARK   34  A    between atoms: _87  and  _89
REMARK   35  A    between atoms: _89  and  _90
REMARK   36  A    between atoms: _89  and  _92
REMARK   37  A    between atoms: _92  and  _93
REMARK   38  A    between atoms: _93  and  _94
REMARK   39  A    between atoms: _94  and  _95
REMARK   40  A    between atoms: _104  and  _106
REMARK   41  A    between atoms: _106  and  _107
REMARK   42  A    between atoms: _106  and  _109
REMARK   43  A    between atoms: _109  and  _110
REMARK   44  A    between atoms: _115  and  _117
REMARK   45  A    between atoms: _117  and  _118
REMARK   46  A    between atoms: _117  and  _120
REMARK   47  A    between atoms: _120  and  _121
REMARK   48  A    between atoms: _121  and  _122
REMARK   49  A    between atoms: _127  and  _129
REMARK   50  A    between atoms: _129  and  _130
REMARK   51  A    between atoms: _129  and  _132
REMARK   52  A    between atoms: _132  and  _133
REMARK   53  A    between atoms: _133  and  _134
REMARK   54  A    between atoms: _136  and  _138
REMARK   55  A    between atoms: _138  and  _139
REMARK   56  A    between atoms: _138  and  _141
REMARK   57  A    between atoms: _141  and  _142
REMARK   58  A    between atoms: _145  and  _147
REMARK   59  A    between atoms: _147  and  _148
REMARK   60  A    between atoms: _147  and  _150
REMARK   61  A    between atoms: _150  and  _151
REMARK   62  A    between atoms: _154  and  _156
REMARK   63  A    between atoms: _156  and  _157
REMARK   64  A    between atoms: _156  and  _159
REMARK   65  A    between atoms: _162  and  _164
REMARK   66  A    between atoms: _164  and  _165
REMARK   67  A    between atoms: _164  and  _167
REMARK   68  A    between atoms: _167  and  _168
REMARK   69  A    between atoms: _168  and  _169
REMARK   70  A    between atoms: _174  and  _176
REMARK   71  A    between atoms: _176  and  _177
REMARK   72  A    between atoms: _176  and  _179
REMARK   73  A    between atoms: _179  and  _180
REMARK   74  A    between atoms: _180  and  _181
REMARK   75  A    between atoms: _186  and  _188
REMARK   76  A    between atoms: _188  and  _189
REMARK   77  A    between atoms: _192  and  _194
REMARK   78  A    between atoms: _194  and  _195
REMARK   79  A    between atoms: _194  and  _197
REMARK   80  A    between atoms: _197  and  _198
REMARK   81  A    between atoms: _198  and  _199
REMARK   82  A    between atoms: _202  and  _204
REMARK   83  A    between atoms: _204  and  _205
REMARK   84  A    between atoms: _204  and  _207
REMARK   85  A    between atoms: _207  and  _208
REMARK   86  A    between atoms: _211  and  _213
REMARK   87  A    between atoms: _213  and  _214
REMARK   88  A    between atoms: _213  and  _216
REMARK   89  A    between atoms: _216  and  _217
REMARK   90  A    between atoms: _217  and  _218
REMARK   91  A    between atoms: _220  and  _222
REMARK   92  A    between atoms: _222  and  _223
REMARK   93  A    between atoms: _222  and  _225
REMARK   94  A    between atoms: _225  and  _226
REMARK   95  A    between atoms: _229  and  _231
REMARK   96  A    between atoms: _231  and  _232
REMARK   97  A    between atoms: _231  and  _234
REMARK   98  A    between atoms: _234  and  _235
REMARK   99  A    between atoms: _238  and  _240
REMARK  100  A    between atoms: _240  and  _241
REMARK  101  A    between atoms: _240  and  _243
REMARK  102  A    between atoms: _243  and  _244
REMARK                            x       y       z     vdW  Elec       q    Type
REMARK                         _______ _______ _______ _____ _____    ______ ____
ROOT
ATOM      1  O   HOH     1      21.844  -3.819  -2.530  0.00  0.00    +0.000 OA
ENDROOT
TORSDOF 0
REMARK  Name = ../refined-set-2016/4b35/4b35_pocket.pdb
REMARK  102 active torsions:
REMARK  status: ('A' for Active; 'I' for Inactive)
REMARK    1  A    between atoms: _1  and  _3
REMARK    2  A    between atoms: _3  and  _4
REMARK    3  A    between atoms: _3  and  _6
REMARK    4  A    between atoms: _9  and  _11
REMARK    5  A    between atoms: _11  and  _12
REMARK    6  A    between atoms: _11  and  _14
REMARK    7  A    between atoms: _14  and  _15
REMARK    8  A    between atoms: _15  and  _16
REMARK    9  A    between atoms: _18  and  _20
REMARK   10  A    between atoms: _20  and  _21
REMARK   11  A    between atoms: _20  and  _23
REMARK   12  A    between atoms: _23  and  _24
REMARK   13  A    between atoms: _34  and  _36
REMARK   14  A    between atoms: _36  and  _37
REMARK   15  A    between atoms: _36  and  _39
REMARK   16  A    between atoms: _39  and  _40
REMARK   17  A    between atoms: _43  and  _45
REMARK   18  A    between atoms: _45  and  _46
REMARK   19  A    between atoms: _45  and  _48
REMARK   20  A    between atoms: _48  and  _49
REMARK   21  A    between atoms: _52  and  _54
REMARK   22  A    between atoms: _54  and  _55
REMARK   23  A    between atoms: _54  and  _57
REMARK   24  A    between atoms: _57  and  _58
REMARK   25  A    between atoms: _61  and  _63
REMARK   26  A    between atoms: _63  and  _64
REMARK   27  A    between atoms: _67  and  _69
REMARK   28  A    between atoms: _69  and  _70
REMARK   29  A    between atoms: _69  and  _72
REMARK   30  A    between atoms: _72  and  _73
REMARK   31  A    between atoms: _78  and  _79
REMARK   32  A    between atoms: _81  and  _83
REMARK   33  A    between atoms: _83  and  _84
REMARK   34  A    between atoms: _87  and  _89
REMARK   35  A    between atoms: _89  and  _90
REMARK   36  A    between atoms: _89  and  _92
REMARK   37  A    between atoms: _92  and  _93
REMARK   38  A    between atoms: _93  and  _94
REMARK   39  A    between atoms: _94  and  _95
REMARK   40  A    between atoms: _104  and  _106
REMARK   41  A    between atoms: _106  and  _107
REMARK   42  A    between atoms: _106  and  _109
REMARK   43  A    between atoms: _109  and  _110
REMARK   44  A    between atoms: _115  and  _117
REMARK   45  A    between atoms: _117  and  _118
REMARK   46  A    between atoms: _117  and  _120
REMARK   47  A    between atoms: _120  and  _121
REMARK   48  A    between atoms: _121  and  _122
REMARK   49  A    between atoms: _127  and  _129
REMARK   50  A    between atoms: _129  and  _130
REMARK   51  A    between atoms: _129  and  _132
REMARK   52  A    between atoms: _132  and  _133
REMARK   53  A    between atoms: _133  and  _134
REMARK   54  A    between atoms: _136  and  _138
REMARK   55  A    between atoms: _138  and  _139
REMARK   56  A    between atoms: _138  and  _141
REMARK   57  A    between atoms: _141  and  _142
REMARK   58  A    between atoms: _145  and  _147
REMARK   59  A    between atoms: _147  and  _148
REMARK   60  A    between atoms: _147  and  _150
REMARK   61  A    between atoms: _150  and  _151
REMARK   62  A    between atoms: _154  and  _156
REMARK   63  A    between atoms: _156  and  _157
REMARK   64  A    between atoms: _156  and  _159
REMARK   65  A    between atoms: _162  and  _164
REMARK   66  A    between atoms: _164  and  _165
REMARK   67  A    between atoms: _164  and  _167
REMARK   68  A    between atoms: _167  and  _168
REMARK   69  A    between atoms: _168  and  _169
REMARK   70  A    between atoms: _174  and  _176
REMARK   71  A    between atoms: _176  and  _177
REMARK   72  A    between atoms: _176  and  _179
REMARK   73  A    between atoms: _179  and  _180
REMARK   74  A    between atoms: _180  and  _181
REMARK   75  A    between atoms: _186  and  _188
REMARK   76  A    between atoms: _188  and  _189
REMARK   77  A    between atoms: _192  and  _194
REMARK   78  A    between atoms: _194  and  _195
REMARK   79  A    between atoms: _194  and  _197
REMARK   80  A    between atoms: _197  and  _198
REMARK   81  A    between atoms: _198  and  _199
REMARK   82  A    between atoms: _202  and  _204
REMARK   83  A    between atoms: _204  and  _205
REMARK   84  A    between atoms: _204  and  _207
REMARK   85  A    between atoms: _207  and  _208
REMARK   86  A    between atoms: _211  and  _213
REMARK   87  A    between atoms: _213  and  _214
REMARK   88  A    between atoms: _213  and  _216
REMARK   89  A    between atoms: _216  and  _217
REMARK   90  A    between atoms: _217  and  _218
REMARK   91  A    between atoms: _220  and  _222
REMARK   92  A    between atoms: _222  and  _223
REMARK   93  A    between atoms: _222  and  _225
REMARK   94  A    between atoms: _225  and  _226
REMARK   95  A    between atoms: _229  and  _231
REMARK   96  A    between atoms: _231  and  _232
REMARK   97  A    between atoms: _231  and  _234
REMARK   98  A    between atoms: _234  and  _235
REMARK   99  A    between atoms: _238  and  _240
REMARK  100  A    between atoms: _240  and  _241
REMARK  101  A    between atoms: _240  and  _243
REMARK  102  A    between atoms: _243  and  _244
REMARK                            x       y       z     vdW  Elec       q    Type
REMARK                         _______ _______ _______ _____ _____    ______ ____
ROOT
ATOM      1  O   HOH     1      23.077  -1.929  -5.534  0.00  0.00    +0.000 OA
ENDROOT
TORSDOF 0
REMARK  Name = ../refined-set-2016/4b35/4b35_pocket.pdb
REMARK  102 active torsions:
REMARK  status: ('A' for Active; 'I' for Inactive)
REMARK    1  A    between atoms: _1  and  _3
REMARK    2  A    between atoms: _3  and  _4
REMARK    3  A    between atoms: _3  and  _6
REMARK    4  A    between atoms: _9  and  _11
REMARK    5  A    between atoms: _11  and  _12
REMARK    6  A    between atoms: _11  and  _14
REMARK    7  A    between atoms: _14  and  _15
REMARK    8  A    between atoms: _15  and  _16
REMARK    9  A    between atoms: _18  and  _20
REMARK   10  A    between atoms: _20  and  _21
REMARK   11  A    between atoms: _20  and  _23
REMARK   12  A    between atoms: _23  and  _24
REMARK   13  A    between atoms: _34  and  _36
REMARK   14  A    between atoms: _36  and  _37
REMARK   15  A    between atoms: _36  and  _39
REMARK   16  A    between atoms: _39  and  _40
REMARK   17  A    between atoms: _43  and  _45
REMARK   18  A    between atoms: _45  and  _46
REMARK   19  A    between atoms: _45  and  _48
REMARK   20  A    between atoms: _48  and  _49
REMARK   21  A    between atoms: _52  and  _54
REMARK   22  A    between atoms: _54  and  _55
REMARK   23  A    between atoms: _54  and  _57
REMARK   24  A    between atoms: _57  and  _58
REMARK   25  A    between atoms: _61  and  _63
REMARK   26  A    between atoms: _63  and  _64
REMARK   27  A    between atoms: _67  and  _69
REMARK   28  A    between atoms: _69  and  _70
REMARK   29  A    between atoms: _69  and  _72
REMARK   30  A    between atoms: _72  and  _73
REMARK   31  A    between atoms: _78  and  _79
REMARK   32  A    between atoms: _81  and  _83
REMARK   33  A    between atoms: _83  and  _84
REMARK   34  A    between atoms: _87  and  _89
REMARK   35  A    between atoms: _89  and  _90
REMARK   36  A    between atoms: _89  and  _92
REMARK   37  A    between atoms: _92  and  _93
REMARK   38  A    between atoms: _93  and  _94
REMARK   39  A    between atoms: _94  and  _95
REMARK   40  A    between atoms: _104  and  _106
REMARK   41  A    between atoms: _106  and  _107
REMARK   42  A    between atoms: _106  and  _109
REMARK   43  A    between atoms: _109  and  _110
REMARK   44  A    between atoms: _115  and  _117
REMARK   45  A    between atoms: _117  and  _118
REMARK   46  A    between atoms: _117  and  _120
REMARK   47  A    between atoms: _120  and  _121
REMARK   48  A    between atoms: _121  and  _122
REMARK   49  A    between atoms: _127  and  _129
REMARK   50  A    between atoms: _129  and  _130
REMARK   51  A    between atoms: _129  and  _132
REMARK   52  A    between atoms: _132  and  _133
REMARK   53  A    between atoms: _133  and  _134
REMARK   54  A    between atoms: _136  and  _138
REMARK   55  A    between atoms: _138  and  _139
REMARK   56  A    between atoms: _138  and  _141
REMARK   57  A    between atoms: _141  and  _142
REMARK   58  A    between atoms: _145  and  _147
REMARK   59  A    between atoms: _147  and  _148
REMARK   60  A    between atoms: _147  and  _150
REMARK   61  A    between atoms: _150  and  _151
REMARK   62  A    between atoms: _154  and  _156
REMARK   63  A    between atoms: _156  and  _157
REMARK   64  A    between atoms: _156  and  _159
REMARK   65  A    between atoms: _162  and  _164
REMARK   66  A    between atoms: _164  and  _165
REMARK   67  A    between atoms: _164  and  _167
REMARK   68  A    between atoms: _167  and  _168
REMARK   69  A    between atoms: _168  and  _169
REMARK   70  A    between atoms: _174  and  _176
REMARK   71  A    between atoms: _176  and  _177
REMARK   72  A    between atoms: _176  and  _179
REMARK   73  A    between atoms: _179  and  _180
REMARK   74  A    between atoms: _180  and  _181
REMARK   75  A    between atoms: _186  and  _188
REMARK   76  A    between atoms: _188  and  _189
REMARK   77  A    between atoms: _192  and  _194
REMARK   78  A    between atoms: _194  and  _195
REMARK   79  A    between atoms: _194  and  _197
REMARK   80  A    between atoms: _197  and  _198
REMARK   81  A    between atoms: _198  and  _199
REMARK   82  A    between atoms: _202  and  _204
REMARK   83  A    between atoms: _204  and  _205
REMARK   84  A    between atoms: _204  and  _207
REMARK   85  A    between atoms: _207  and  _208
REMARK   86  A    between atoms: _211  and  _213
REMARK   87  A    between atoms: _213  and  _214
REMARK   88  A    between atoms: _213  and  _216
REMARK   89  A    between atoms: _216  and  _217
REMARK   90  A    between atoms: _217  and  _218
REMARK   91  A    between atoms: _220  and  _222
REMARK   92  A    between atoms: _222  and  _223
REMARK   93  A    between atoms: _222  and  _225
REMARK   94  A    between atoms: _225  and  _226
REMARK   95  A    between atoms: _229  and  _231
REMARK   96  A    between atoms: _231  and  _232
REMARK   97  A    between atoms: _231  and  _234
REMARK   98  A    between atoms: _234  and  _235
REMARK   99  A    between atoms: _238  and  _240
REMARK  100  A    between atoms: _240  and  _241
REMARK  101  A    between atoms: _240  and  _243
REMARK  102  A    between atoms: _243  and  _244
REMARK                            x       y       z     vdW  Elec       q    Type
REMARK                         _______ _______ _______ _____ _____    ______ ____
ROOT
ATOM      1  O   HOH     1      23.432  -0.197  -3.390  0.00  0.00    +0.000 OA
ENDROOT
TORSDOF 0
REMARK  Name = ../refined-set-2016/4b35/4b35_pocket.pdb
REMARK  102 active torsions:
REMARK  status: ('A' for Active; 'I' for Inactive)
REMARK    1  A    between atoms: _1  and  _3
REMARK    2  A    between atoms: _3  and  _4
REMARK    3  A    between atoms: _3  and  _6
REMARK    4  A    between atoms: _9  and  _11
REMARK    5  A    between atoms: _11  and  _12
REMARK    6  A    between atoms: _11  and  _14
REMARK    7  A    between atoms: _14  and  _15
REMARK    8  A    between atoms: _15  and  _16
REMARK    9  A    between atoms: _18  and  _20
REMARK   10  A    between atoms: _20  and  _21
REMARK   11  A    between atoms: _20  and  _23
REMARK   12  A    between atoms: _23  and  _24
REMARK   13  A    between atoms: _34  and  _36
REMARK   14  A    between atoms: _36  and  _37
REMARK   15  A    between atoms: _36  and  _39
REMARK   16  A    between atoms: _39  and  _40
REMARK   17  A    between atoms: _43  and  _45
REMARK   18  A    between atoms: _45  and  _46
REMARK   19  A    between atoms: _45  and  _48
REMARK   20  A    between atoms: _48  and  _49
REMARK   21  A    between atoms: _52  and  _54
REMARK   22  A    between atoms: _54  and  _55
REMARK   23  A    between atoms: _54  and  _57
REMARK   24  A    between atoms: _57  and  _58
REMARK   25  A    between atoms: _61  and  _63
REMARK   26  A    between atoms: _63  and  _64
REMARK   27  A    between atoms: _67  and  _69
REMARK   28  A    between atoms: _69  and  _70
REMARK   29  A    between atoms: _69  and  _72
REMARK   30  A    between atoms: _72  and  _73
REMARK   31  A    between atoms: _78  and  _79
REMARK   32  A    between atoms: _81  and  _83
REMARK   33  A    between atoms: _83  and  _84
REMARK   34  A    between atoms: _87  and  _89
REMARK   35  A    between atoms: _89  and  _90
REMARK   36  A    between atoms: _89  and  _92
REMARK   37  A    between atoms: _92  and  _93
REMARK   38  A    between atoms: _93  and  _94
REMARK   39  A    between atoms: _94  and  _95
REMARK   40  A    between atoms: _104  and  _106
REMARK   41  A    between atoms: _106  and  _107
REMARK   42  A    between atoms: _106  and  _109
REMARK   43  A    between atoms: _109  and  _110
REMARK   44  A    between atoms: _115  and  _117
REMARK   45  A    between atoms: _117  and  _118
REMARK   46  A    between atoms: _117  and  _120
REMARK   47  A    between atoms: _120  and  _121
REMARK   48  A    between atoms: _121  and  _122
REMARK   49  A    between atoms: _127  and  _129
REMARK   50  A    between atoms: _129  and  _130
REMARK   51  A    between atoms: _129  and  _132
REMARK   52  A    between atoms: _132  and  _133
REMARK   53  A    between atoms: _133  and  _134
REMARK   54  A    between atoms: _136  and  _138
REMARK   55  A    between atoms: _138  and  _139
REMARK   56  A    between atoms: _138  and  _141
REMARK   57  A    between atoms: _141  and  _142
REMARK   58  A    between atoms: _145  and  _147
REMARK   59  A    between atoms: _147  and  _148
REMARK   60  A    between atoms: _147  and  _150
REMARK   61  A    between atoms: _150  and  _151
REMARK   62  A    between atoms: _154  and  _156
REMARK   63  A    between atoms: _156  and  _157
REMARK   64  A    between atoms: _156  and  _159
REMARK   65  A    between atoms: _162  and  _164
REMARK   66  A    between atoms: _164  and  _165
REMARK   67  A    between atoms: _164  and  _167
REMARK   68  A    between atoms: _167  and  _168
REMARK   69  A    between atoms: _168  and  _169
REMARK   70  A    between atoms: _174  and  _176
REMARK   71  A    between atoms: _176  and  _177
REMARK   72  A    between atoms: _176  and  _179
REMARK   73  A    between atoms: _179  and  _180
REMARK   74  A    between atoms: _180  and  _181
REMARK   75  A    between atoms: _186  and  _188
REMARK   76  A    between atoms: _188  and  _189
REMARK   77  A    between atoms: _192  and  _194
REMARK   78  A    between atoms: _194  and  _195
REMARK   79  A    between atoms: _194  and  _197
REMARK   80  A    between atoms: _197  and  _198
REMARK   81  A    between atoms: _198  and  _199
REMARK   82  A    between atoms: _202  and  _204
REMARK   83  A    between atoms: _204  and  _205
REMARK   84  A    between atoms: _204  and  _207
REMARK   85  A    between atoms: _207  and  _208
REMARK   86  A    between atoms: _211  and  _213
REMARK   87  A    between atoms: _213  and  _214
REMARK   88  A    between atoms: _213  and  _216
REMARK   89  A    between atoms: _216  and  _217
REMARK   90  A    between atoms: _217  and  _218
REMARK   91  A    between atoms: _220  and  _222
REMARK   92  A    between atoms: _222  and  _223
REMARK   93  A    between atoms: _222  and  _225
REMARK   94  A    between atoms: _225  and  _226
REMARK   95  A    between atoms: _229  and  _231
REMARK   96  A    between atoms: _231  and  _232
REMARK   97  A    between atoms: _231  and  _234
REMARK   98  A    between atoms: _234  and  _235
REMARK   99  A    between atoms: _238  and  _240
REMARK  100  A    between atoms: _240  and  _241
REMARK  101  A    between atoms: _240  and  _243
REMARK  102  A    between atoms: _243  and  _244
REMARK                            x       y       z     vdW  Elec       q    Type
REMARK                         _______ _______ _______ _____ _____    ______ ____
ROOT
ATOM      1  O   HOH     1      23.299  12.561   0.998  0.00  0.00    +0.000 OA
ENDROOT
TORSDOF 0
REMARK  Name = ../refined-set-2016/4b35/4b35_pocket.pdb
REMARK  102 active torsions:
REMARK  status: ('A' for Active; 'I' for Inactive)
REMARK    1  A    between atoms: _1  and  _3
REMARK    2  A    between atoms: _3  and  _4
REMARK    3  A    between atoms: _3  and  _6
REMARK    4  A    between atoms: _9  and  _11
REMARK    5  A    between atoms: _11  and  _12
REMARK    6  A    between atoms: _11  and  _14
REMARK    7  A    between atoms: _14  and  _15
REMARK    8  A    between atoms: _15  and  _16
REMARK    9  A    between atoms: _18  and  _20
REMARK   10  A    between atoms: _20  and  _21
REMARK   11  A    between atoms: _20  and  _23
REMARK   12  A    between atoms: _23  and  _24
REMARK   13  A    between atoms: _34  and  _36
REMARK   14  A    between atoms: _36  and  _37
REMARK   15  A    between atoms: _36  and  _39
REMARK   16  A    between atoms: _39  and  _40
REMARK   17  A    between atoms: _43  and  _45
REMARK   18  A    between atoms: _45  and  _46
REMARK   19  A    between atoms: _45  and  _48
REMARK   20  A    between atoms: _48  and  _49
REMARK   21  A    between atoms: _52  and  _54
REMARK   22  A    between atoms: _54  and  _55
REMARK   23  A    between atoms: _54  and  _57
REMARK   24  A    between atoms: _57  and  _58
REMARK   25  A    between atoms: _61  and  _63
REMARK   26  A    between atoms: _63  and  _64
REMARK   27  A    between atoms: _67  and  _69
REMARK   28  A    between atoms: _69  and  _70
REMARK   29  A    between atoms: _69  and  _72
REMARK   30  A    between atoms: _72  and  _73
REMARK   31  A    between atoms: _78  and  _79
REMARK   32  A    between atoms: _81  and  _83
REMARK   33  A    between atoms: _83  and  _84
REMARK   34  A    between atoms: _87  and  _89
REMARK   35  A    between atoms: _89  and  _90
REMARK   36  A    between atoms: _89  and  _92
REMARK   37  A    between atoms: _92  and  _93
REMARK   38  A    between atoms: _93  and  _94
REMARK   39  A    between atoms: _94  and  _95
REMARK   40  A    between atoms: _104  and  _106
REMARK   41  A    between atoms: _106  and  _107
REMARK   42  A    between atoms: _106  and  _109
REMARK   43  A    between atoms: _109  and  _110
REMARK   44  A    between atoms: _115  and  _117
REMARK   45  A    between atoms: _117  and  _118
REMARK   46  A    between atoms: _117  and  _120
REMARK   47  A    between atoms: _120  and  _121
REMARK   48  A    between atoms: _121  and  _122
REMARK   49  A    between atoms: _127  and  _129
REMARK   50  A    between atoms: _129  and  _130
REMARK   51  A    between atoms: _129  and  _132
REMARK   52  A    between atoms: _132  and  _133
REMARK   53  A    between atoms: _133  and  _134
REMARK   54  A    between atoms: _136  and  _138
REMARK   55  A    between atoms: _138  and  _139
REMARK   56  A    between atoms: _138  and  _141
REMARK   57  A    between atoms: _141  and  _142
REMARK   58  A    between atoms: _145  and  _147
REMARK   59  A    between atoms: _147  and  _148
REMARK   60  A    between atoms: _147  and  _150
REMARK   61  A    between atoms: _150  and  _151
REMARK   62  A    between atoms: _154  and  _156
REMARK   63  A    between atoms: _156  and  _157
REMARK   64  A    between atoms: _156  and  _159
REMARK   65  A    between atoms: _162  and  _164
REMARK   66  A    between atoms: _164  and  _165
REMARK   67  A    between atoms: _164  and  _167
REMARK   68  A    between atoms: _167  and  _168
REMARK   69  A    between atoms: _168  and  _169
REMARK   70  A    between atoms: _174  and  _176
REMARK   71  A    between atoms: _176  and  _177
REMARK   72  A    between atoms: _176  and  _179
REMARK   73  A    between atoms: _179  and  _180
REMARK   74  A    between atoms: _180  and  _181
REMARK   75  A    between atoms: _186  and  _188
REMARK   76  A    between atoms: _188  and  _189
REMARK   77  A    between atoms: _192  and  _194
REMARK   78  A    between atoms: _194  and  _195
REMARK   79  A    between atoms: _194  and  _197
REMARK   80  A    between atoms: _197  and  _198
REMARK   81  A    between atoms: _198  and  _199
REMARK   82  A    between atoms: _202  and  _204
REMARK   83  A    between atoms: _204  and  _205
REMARK   84  A    between atoms: _204  and  _207
REMARK   85  A    between atoms: _207  and  _208
REMARK   86  A    between atoms: _211  and  _213
REMARK   87  A    between atoms: _213  and  _214
REMARK   88  A    between atoms: _213  and  _216
REMARK   89  A    between atoms: _216  and  _217
REMARK   90  A    between atoms: _217  and  _218
REMARK   91  A    between atoms: _220  and  _222
REMARK   92  A    between atoms: _222  and  _223
REMARK   93  A    between atoms: _222  and  _225
REMARK   94  A    between atoms: _225  and  _226
REMARK   95  A    between atoms: _229  and  _231
REMARK   96  A    between atoms: _231  and  _232
REMARK   97  A    between atoms: _231  and  _234
REMARK   98  A    between atoms: _234  and  _235
REMARK   99  A    between atoms: _238  and  _240
REMARK  100  A    between atoms: _240  and  _241
REMARK  101  A    between atoms: _240  and  _243
REMARK  102  A    between atoms: _243  and  _244
REMARK                            x       y       z     vdW  Elec       q    Type
REMARK                         _______ _______ _______ _____ _____    ______ ____
ROOT
ATOM      1  O   HOH     1      25.080   9.874   1.822  0.00  0.00    +0.000 OA
ENDROOT
TORSDOF 0
REMARK  Name = ../refined-set-2016/4b35/4b35_pocket.pdb
REMARK  102 active torsions:
REMARK  status: ('A' for Active; 'I' for Inactive)
REMARK    1  A    between atoms: _1  and  _3
REMARK    2  A    between atoms: _3  and  _4
REMARK    3  A    between atoms: _3  and  _6
REMARK    4  A    between atoms: _9  and  _11
REMARK    5  A    between atoms: _11  and  _12
REMARK    6  A    between atoms: _11  and  _14
REMARK    7  A    between atoms: _14  and  _15
REMARK    8  A    between atoms: _15  and  _16
REMARK    9  A    between atoms: _18  and  _20
REMARK   10  A    between atoms: _20  and  _21
REMARK   11  A    between atoms: _20  and  _23
REMARK   12  A    between atoms: _23  and  _24
REMARK   13  A    between atoms: _34  and  _36
REMARK   14  A    between atoms: _36  and  _37
REMARK   15  A    between atoms: _36  and  _39
REMARK   16  A    between atoms: _39  and  _40
REMARK   17  A    between atoms: _43  and  _45
REMARK   18  A    between atoms: _45  and  _46
REMARK   19  A    between atoms: _45  and  _48
REMARK   20  A    between atoms: _48  and  _49
REMARK   21  A    between atoms: _52  and  _54
REMARK   22  A    between atoms: _54  and  _55
REMARK   23  A    between atoms: _54  and  _57
REMARK   24  A    between atoms: _57  and  _58
REMARK   25  A    between atoms: _61  and  _63
REMARK   26  A    between atoms: _63  and  _64
REMARK   27  A    between atoms: _67  and  _69
REMARK   28  A    between atoms: _69  and  _70
REMARK   29  A    between atoms: _69  and  _72
REMARK   30  A    between atoms: _72  and  _73
REMARK   31  A    between atoms: _78  and  _79
REMARK   32  A    between atoms: _81  and  _83
REMARK   33  A    between atoms: _83  and  _84
REMARK   34  A    between atoms: _87  and  _89
REMARK   35  A    between atoms: _89  and  _90
REMARK   36  A    between atoms: _89  and  _92
REMARK   37  A    between atoms: _92  and  _93
REMARK   38  A    between atoms: _93  and  _94
REMARK   39  A    between atoms: _94  and  _95
REMARK   40  A    between atoms: _104  and  _106
REMARK   41  A    between atoms: _106  and  _107
REMARK   42  A    between atoms: _106  and  _109
REMARK   43  A    between atoms: _109  and  _110
REMARK   44  A    between atoms: _115  and  _117
REMARK   45  A    between atoms: _117  and  _118
REMARK   46  A    between atoms: _117  and  _120
REMARK   47  A    between atoms: _120  and  _121
REMARK   48  A    between atoms: _121  and  _122
REMARK   49  A    between atoms: _127  and  _129
REMARK   50  A    between atoms: _129  and  _130
REMARK   51  A    between atoms: _129  and  _132
REMARK   52  A    between atoms: _132  and  _133
REMARK   53  A    between atoms: _133  and  _134
REMARK   54  A    between atoms: _136  and  _138
REMARK   55  A    between atoms: _138  and  _139
REMARK   56  A    between atoms: _138  and  _141
REMARK   57  A    between atoms: _141  and  _142
REMARK   58  A    between atoms: _145  and  _147
REMARK   59  A    between atoms: _147  and  _148
REMARK   60  A    between atoms: _147  and  _150
REMARK   61  A    between atoms: _150  and  _151
REMARK   62  A    between atoms: _154  and  _156
REMARK   63  A    between atoms: _156  and  _157
REMARK   64  A    between atoms: _156  and  _159
REMARK   65  A    between atoms: _162  and  _164
REMARK   66  A    between atoms: _164  and  _165
REMARK   67  A    between atoms: _164  and  _167
REMARK   68  A    between atoms: _167  and  _168
REMARK   69  A    between atoms: _168  and  _169
REMARK   70  A    between atoms: _174  and  _176
REMARK   71  A    between atoms: _176  and  _177
REMARK   72  A    between atoms: _176  and  _179
REMARK   73  A    between atoms: _179  and  _180
REMARK   74  A    between atoms: _180  and  _181
REMARK   75  A    between atoms: _186  and  _188
REMARK   76  A    between atoms: _188  and  _189
REMARK   77  A    between atoms: _192  and  _194
REMARK   78  A    between atoms: _194  and  _195
REMARK   79  A    between atoms: _194  and  _197
REMARK   80  A    between atoms: _197  and  _198
REMARK   81  A    between atoms: _198  and  _199
REMARK   82  A    between atoms: _202  and  _204
REMARK   83  A    between atoms: _204  and  _205
REMARK   84  A    between atoms: _204  and  _207
REMARK   85  A    between atoms: _207  and  _208
REMARK   86  A    between atoms: _211  and  _213
REMARK   87  A    between atoms: _213  and  _214
REMARK   88  A    between atoms: _213  and  _216
REMARK   89  A    between atoms: _216  and  _217
REMARK   90  A    between atoms: _217  and  _218
REMARK   91  A    between atoms: _220  and  _222
REMARK   92  A    between atoms: _222  and  _223
REMARK   93  A    between atoms: _222  and  _225
REMARK   94  A    between atoms: _225  and  _226
REMARK   95  A    between atoms: _229  and  _231
REMARK   96  A    between atoms: _231  and  _232
REMARK   97  A    between atoms: _231  and  _234
REMARK   98  A    between atoms: _234  and  _235
REMARK   99  A    between atoms: _238  and  _240
REMARK  100  A    between atoms: _240  and  _241
REMARK  101  A    between atoms: _240  and  _243
REMARK  102  A    between atoms: _243  and  _244
REMARK                            x       y       z     vdW  Elec       q    Type
REMARK                         _______ _______ _______ _____ _____    ______ ____
ROOT
ATOM      1  O   HOH     1      19.576   9.567  -6.614  0.00  0.00    +0.000 OA
ENDROOT
TORSDOF 0
REMARK  Name = ../refined-set-2016/4b35/4b35_pocket.pdb
REMARK  102 active torsions:
REMARK  status: ('A' for Active; 'I' for Inactive)
REMARK    1  A    between atoms: _1  and  _3
REMARK    2  A    between atoms: _3  and  _4
REMARK    3  A    between atoms: _3  and  _6
REMARK    4  A    between atoms: _9  and  _11
REMARK    5  A    between atoms: _11  and  _12
REMARK    6  A    between atoms: _11  and  _14
REMARK    7  A    between atoms: _14  and  _15
REMARK    8  A    between atoms: _15  and  _16
REMARK    9  A    between atoms: _18  and  _20
REMARK   10  A    between atoms: _20  and  _21
REMARK   11  A    between atoms: _20  and  _23
REMARK   12  A    between atoms: _23  and  _24
REMARK   13  A    between atoms: _34  and  _36
REMARK   14  A    between atoms: _36  and  _37
REMARK   15  A    between atoms: _36  and  _39
REMARK   16  A    between atoms: _39  and  _40
REMARK   17  A    between atoms: _43  and  _45
REMARK   18  A    between atoms: _45  and  _46
REMARK   19  A    between atoms: _45  and  _48
REMARK   20  A    between atoms: _48  and  _49
REMARK   21  A    between atoms: _52  and  _54
REMARK   22  A    between atoms: _54  and  _55
REMARK   23  A    between atoms: _54  and  _57
REMARK   24  A    between atoms: _57  and  _58
REMARK   25  A    between atoms: _61  and  _63
REMARK   26  A    between atoms: _63  and  _64
REMARK   27  A    between atoms: _67  and  _69
REMARK   28  A    between atoms: _69  and  _70
REMARK   29  A    between atoms: _69  and  _72
REMARK   30  A    between atoms: _72  and  _73
REMARK   31  A    between atoms: _78  and  _79
REMARK   32  A    between atoms: _81  and  _83
REMARK   33  A    between atoms: _83  and  _84
REMARK   34  A    between atoms: _87  and  _89
REMARK   35  A    between atoms: _89  and  _90
REMARK   36  A    between atoms: _89  and  _92
REMARK   37  A    between atoms: _92  and  _93
REMARK   38  A    between atoms: _93  and  _94
REMARK   39  A    between atoms: _94  and  _95
REMARK   40  A    between atoms: _104  and  _106
REMARK   41  A    between atoms: _106  and  _107
REMARK   42  A    between atoms: _106  and  _109
REMARK   43  A    between atoms: _109  and  _110
REMARK   44  A    between atoms: _115  and  _117
REMARK   45  A    between atoms: _117  and  _118
REMARK   46  A    between atoms: _117  and  _120
REMARK   47  A    between atoms: _120  and  _121
REMARK   48  A    between atoms: _121  and  _122
REMARK   49  A    between atoms: _127  and  _129
REMARK   50  A    between atoms: _129  and  _130
REMARK   51  A    between atoms: _129  and  _132
REMARK   52  A    between atoms: _132  and  _133
REMARK   53  A    between atoms: _133  and  _134
REMARK   54  A    between atoms: _136  and  _138
REMARK   55  A    between atoms: _138  and  _139
REMARK   56  A    between atoms: _138  and  _141
REMARK   57  A    between atoms: _141  and  _142
REMARK   58  A    between atoms: _145  and  _147
REMARK   59  A    between atoms: _147  and  _148
REMARK   60  A    between atoms: _147  and  _150
REMARK   61  A    between atoms: _150  and  _151
REMARK   62  A    between atoms: _154  and  _156
REMARK   63  A    between atoms: _156  and  _157
REMARK   64  A    between atoms: _156  and  _159
REMARK   65  A    between atoms: _162  and  _164
REMARK   66  A    between atoms: _164  and  _165
REMARK   67  A    between atoms: _164  and  _167
REMARK   68  A    between atoms: _167  and  _168
REMARK   69  A    between atoms: _168  and  _169
REMARK   70  A    between atoms: _174  and  _176
REMARK   71  A    between atoms: _176  and  _177
REMARK   72  A    between atoms: _176  and  _179
REMARK   73  A    between atoms: _179  and  _180
REMARK   74  A    between atoms: _180  and  _181
REMARK   75  A    between atoms: _186  and  _188
REMARK   76  A    between atoms: _188  and  _189
REMARK   77  A    between atoms: _192  and  _194
REMARK   78  A    between atoms: _194  and  _195
REMARK   79  A    between atoms: _194  and  _197
REMARK   80  A    between atoms: _197  and  _198
REMARK   81  A    between atoms: _198  and  _199
REMARK   82  A    between atoms: _202  and  _204
REMARK   83  A    between atoms: _204  and  _205
REMARK   84  A    between atoms: _204  and  _207
REMARK   85  A    between atoms: _207  and  _208
REMARK   86  A    between atoms: _211  and  _213
REMARK   87  A    between atoms: _213  and  _214
REMARK   88  A    between atoms: _213  and  _216
REMARK   89  A    between atoms: _216  and  _217
REMARK   90  A    between atoms: _217  and  _218
REMARK   91  A    between atoms: _220  and  _222
REMARK   92  A    between atoms: _222  and  _223
REMARK   93  A    between atoms: _222  and  _225
REMARK   94  A    between atoms: _225  and  _226
REMARK   95  A    between atoms: _229  and  _231
REMARK   96  A    between atoms: _231  and  _232
REMARK   97  A    between atoms: _231  and  _234
REMARK   98  A    between atoms: _234  and  _235
REMARK   99  A    between atoms: _238  and  _240
REMARK  100  A    between atoms: _240  and  _241
REMARK  101  A    between atoms: _240  and  _243
REMARK  102  A    between atoms: _243  and  _244
REMARK                            x       y       z     vdW  Elec       q    Type
REMARK                         _______ _______ _______ _____ _____    ______ ____
ROOT
ATOM      1  O   HOH     1      23.415  11.571  -2.510  0.00  0.00    +0.000 OA
ENDROOT
TORSDOF 0
REMARK  Name = ../refined-set-2016/4b35/4b35_pocket.pdb
REMARK  102 active torsions:
REMARK  status: ('A' for Active; 'I' for Inactive)
REMARK    1  A    between atoms: _1  and  _3
REMARK    2  A    between atoms: _3  and  _4
REMARK    3  A    between atoms: _3  and  _6
REMARK    4  A    between atoms: _9  and  _11
REMARK    5  A    between atoms: _11  and  _12
REMARK    6  A    between atoms: _11  and  _14
REMARK    7  A    between atoms: _14  and  _15
REMARK    8  A    between atoms: _15  and  _16
REMARK    9  A    between atoms: _18  and  _20
REMARK   10  A    between atoms: _20  and  _21
REMARK   11  A    between atoms: _20  and  _23
REMARK   12  A    between atoms: _23  and  _24
REMARK   13  A    between atoms: _34  and  _36
REMARK   14  A    between atoms: _36  and  _37
REMARK   15  A    between atoms: _36  and  _39
REMARK   16  A    between atoms: _39  and  _40
REMARK   17  A    between atoms: _43  and  _45
REMARK   18  A    between atoms: _45  and  _46
REMARK   19  A    between atoms: _45  and  _48
REMARK   20  A    between atoms: _48  and  _49
REMARK   21  A    between atoms: _52  and  _54
REMARK   22  A    between atoms: _54  and  _55
REMARK   23  A    between atoms: _54  and  _57
REMARK   24  A    between atoms: _57  and  _58
REMARK   25  A    between atoms: _61  and  _63
REMARK   26  A    between atoms: _63  and  _64
REMARK   27  A    between atoms: _67  and  _69
REMARK   28  A    between atoms: _69  and  _70
REMARK   29  A    between atoms: _69  and  _72
REMARK   30  A    between atoms: _72  and  _73
REMARK   31  A    between atoms: _78  and  _79
REMARK   32  A    between atoms: _81  and  _83
REMARK   33  A    between atoms: _83  and  _84
REMARK   34  A    between atoms: _87  and  _89
REMARK   35  A    between atoms: _89  and  _90
REMARK   36  A    between atoms: _89  and  _92
REMARK   37  A    between atoms: _92  and  _93
REMARK   38  A    between atoms: _93  and  _94
REMARK   39  A    between atoms: _94  and  _95
REMARK   40  A    between atoms: _104  and  _106
REMARK   41  A    between atoms: _106  and  _107
REMARK   42  A    between atoms: _106  and  _109
REMARK   43  A    between atoms: _109  and  _110
REMARK   44  A    between atoms: _115  and  _117
REMARK   45  A    between atoms: _117  and  _118
REMARK   46  A    between atoms: _117  and  _120
REMARK   47  A    between atoms: _120  and  _121
REMARK   48  A    between atoms: _121  and  _122
REMARK   49  A    between atoms: _127  and  _129
REMARK   50  A    between atoms: _129  and  _130
REMARK   51  A    between atoms: _129  and  _132
REMARK   52  A    between atoms: _132  and  _133
REMARK   53  A    between atoms: _133  and  _134
REMARK   54  A    between atoms: _136  and  _138
REMARK   55  A    between atoms: _138  and  _139
REMARK   56  A    between atoms: _138  and  _141
REMARK   57  A    between atoms: _141  and  _142
REMARK   58  A    between atoms: _145  and  _147
REMARK   59  A    between atoms: _147  and  _148
REMARK   60  A    between atoms: _147  and  _150
REMARK   61  A    between atoms: _150  and  _151
REMARK   62  A    between atoms: _154  and  _156
REMARK   63  A    between atoms: _156  and  _157
REMARK   64  A    between atoms: _156  and  _159
REMARK   65  A    between atoms: _162  and  _164
REMARK   66  A    between atoms: _164  and  _165
REMARK   67  A    between atoms: _164  and  _167
REMARK   68  A    between atoms: _167  and  _168
REMARK   69  A    between atoms: _168  and  _169
REMARK   70  A    between atoms: _174  and  _176
REMARK   71  A    between atoms: _176  and  _177
REMARK   72  A    between atoms: _176  and  _179
REMARK   73  A    between atoms: _179  and  _180
REMARK   74  A    between atoms: _180  and  _181
REMARK   75  A    between atoms: _186  and  _188
REMARK   76  A    between atoms: _188  and  _189
REMARK   77  A    between atoms: _192  and  _194
REMARK   78  A    between atoms: _194  and  _195
REMARK   79  A    between atoms: _194  and  _197
REMARK   80  A    between atoms: _197  and  _198
REMARK   81  A    between atoms: _198  and  _199
REMARK   82  A    between atoms: _202  and  _204
REMARK   83  A    between atoms: _204  and  _205
REMARK   84  A    between atoms: _204  and  _207
REMARK   85  A    between atoms: _207  and  _208
REMARK   86  A    between atoms: _211  and  _213
REMARK   87  A    between atoms: _213  and  _214
REMARK   88  A    between atoms: _213  and  _216
REMARK   89  A    between atoms: _216  and  _217
REMARK   90  A    between atoms: _217  and  _218
REMARK   91  A    between atoms: _220  and  _222
REMARK   92  A    between atoms: _222  and  _223
REMARK   93  A    between atoms: _222  and  _225
REMARK   94  A    between atoms: _225  and  _226
REMARK   95  A    between atoms: _229  and  _231
REMARK   96  A    between atoms: _231  and  _232
REMARK   97  A    between atoms: _231  and  _234
REMARK   98  A    between atoms: _234  and  _235
REMARK   99  A    between atoms: _238  and  _240
REMARK  100  A    between atoms: _240  and  _241
REMARK  101  A    between atoms: _240  and  _243
REMARK  102  A    between atoms: _243  and  _244
REMARK                            x       y       z     vdW  Elec       q    Type
REMARK                         _______ _______ _______ _____ _____    ______ ____
ROOT
ATOM      1  O   HOH     1      21.995   8.407  -6.517  0.00  0.00    +0.000 OA
ENDROOT
TORSDOF 0
REMARK  Name = ../refined-set-2016/4b35/4b35_pocket.pdb
REMARK  102 active torsions:
REMARK  status: ('A' for Active; 'I' for Inactive)
REMARK    1  A    between atoms: _1  and  _3
REMARK    2  A    between atoms: _3  and  _4
REMARK    3  A    between atoms: _3  and  _6
REMARK    4  A    between atoms: _9  and  _11
REMARK    5  A    between atoms: _11  and  _12
REMARK    6  A    between atoms: _11  and  _14
REMARK    7  A    between atoms: _14  and  _15
REMARK    8  A    between atoms: _15  and  _16
REMARK    9  A    between atoms: _18  and  _20
REMARK   10  A    between atoms: _20  and  _21
REMARK   11  A    between atoms: _20  and  _23
REMARK   12  A    between atoms: _23  and  _24
REMARK   13  A    between atoms: _34  and  _36
REMARK   14  A    between atoms: _36  and  _37
REMARK   15  A    between atoms: _36  and  _39
REMARK   16  A    between atoms: _39  and  _40
REMARK   17  A    between atoms: _43  and  _45
REMARK   18  A    between atoms: _45  and  _46
REMARK   19  A    between atoms: _45  and  _48
REMARK   20  A    between atoms: _48  and  _49
REMARK   21  A    between atoms: _52  and  _54
REMARK   22  A    between atoms: _54  and  _55
REMARK   23  A    between atoms: _54  and  _57
REMARK   24  A    between atoms: _57  and  _58
REMARK   25  A    between atoms: _61  and  _63
REMARK   26  A    between atoms: _63  and  _64
REMARK   27  A    between atoms: _67  and  _69
REMARK   28  A    between atoms: _69  and  _70
REMARK   29  A    between atoms: _69  and  _72
REMARK   30  A    between atoms: _72  and  _73
REMARK   31  A    between atoms: _78  and  _79
REMARK   32  A    between atoms: _81  and  _83
REMARK   33  A    between atoms: _83  and  _84
REMARK   34  A    between atoms: _87  and  _89
REMARK   35  A    between atoms: _89  and  _90
REMARK   36  A    between atoms: _89  and  _92
REMARK   37  A    between atoms: _92  and  _93
REMARK   38  A    between atoms: _93  and  _94
REMARK   39  A    between atoms: _94  and  _95
REMARK   40  A    between atoms: _104  and  _106
REMARK   41  A    between atoms: _106  and  _107
REMARK   42  A    between atoms: _106  and  _109
REMARK   43  A    between atoms: _109  and  _110
REMARK   44  A    between atoms: _115  and  _117
REMARK   45  A    between atoms: _117  and  _118
REMARK   46  A    between atoms: _117  and  _120
REMARK   47  A    between atoms: _120  and  _121
REMARK   48  A    between atoms: _121  and  _122
REMARK   49  A    between atoms: _127  and  _129
REMARK   50  A    between atoms: _129  and  _130
REMARK   51  A    between atoms: _129  and  _132
REMARK   52  A    between atoms: _132  and  _133
REMARK   53  A    between atoms: _133  and  _134
REMARK   54  A    between atoms: _136  and  _138
REMARK   55  A    between atoms: _138  and  _139
REMARK   56  A    between atoms: _138  and  _141
REMARK   57  A    between atoms: _141  and  _142
REMARK   58  A    between atoms: _145  and  _147
REMARK   59  A    between atoms: _147  and  _148
REMARK   60  A    between atoms: _147  and  _150
REMARK   61  A    between atoms: _150  and  _151
REMARK   62  A    between atoms: _154  and  _156
REMARK   63  A    between atoms: _156  and  _157
REMARK   64  A    between atoms: _156  and  _159
REMARK   65  A    between atoms: _162  and  _164
REMARK   66  A    between atoms: _164  and  _165
REMARK   67  A    between atoms: _164  and  _167
REMARK   68  A    between atoms: _167  and  _168
REMARK   69  A    between atoms: _168  and  _169
REMARK   70  A    between atoms: _174  and  _176
REMARK   71  A    between atoms: _176  and  _177
REMARK   72  A    between atoms: _176  and  _179
REMARK   73  A    between atoms: _179  and  _180
REMARK   74  A    between atoms: _180  and  _181
REMARK   75  A    between atoms: _186  and  _188
REMARK   76  A    between atoms: _188  and  _189
REMARK   77  A    between atoms: _192  and  _194
REMARK   78  A    between atoms: _194  and  _195
REMARK   79  A    between atoms: _194  and  _197
REMARK   80  A    between atoms: _197  and  _198
REMARK   81  A    between atoms: _198  and  _199
REMARK   82  A    between atoms: _202  and  _204
REMARK   83  A    between atoms: _204  and  _205
REMARK   84  A    between atoms: _204  and  _207
REMARK   85  A    between atoms: _207  and  _208
REMARK   86  A    between atoms: _211  and  _213
REMARK   87  A    between atoms: _213  and  _214
REMARK   88  A    between atoms: _213  and  _216
REMARK   89  A    between atoms: _216  and  _217
REMARK   90  A    between atoms: _217  and  _218
REMARK   91  A    between atoms: _220  and  _222
REMARK   92  A    between atoms: _222  and  _223
REMARK   93  A    between atoms: _222  and  _225
REMARK   94  A    between atoms: _225  and  _226
REMARK   95  A    between atoms: _229  and  _231
REMARK   96  A    between atoms: _231  and  _232
REMARK   97  A    between atoms: _231  and  _234
REMARK   98  A    between atoms: _234  and  _235
REMARK   99  A    between atoms: _238  and  _240
REMARK  100  A    between atoms: _240  and  _241
REMARK  101  A    between atoms: _240  and  _243
REMARK  102  A    between atoms: _243  and  _244
REMARK                            x       y       z     vdW  Elec       q    Type
REMARK                         _______ _______ _______ _____ _____    ______ ____
ROOT
ATOM      1  O   HOH     1      25.380   6.704  -4.772  0.00  0.00    +0.000 OA
ENDROOT
TORSDOF 0
