REMARK  Name = ../refined-set-2016/2py4/2py4_pocket.pdb
REMARK  221 active torsions:
REMARK  status: ('A' for Active; 'I' for Inactive)
REMARK    1  A    between atoms: _1  and  _3
REMARK    2  A    between atoms: _3  and  _4
REMARK    3  A    between atoms: _3  and  _6
REMARK    4  A    between atoms: _6  and  _7
REMARK    5  A    between atoms: _10  and  _12
REMARK    6  A    between atoms: _12  and  _13
REMARK    7  A    between atoms: _12  and  _15
REMARK    8  A    between atoms: _15  and  _16
REMARK    9  A    between atoms: _19  and  _21
REMARK   10  A    between atoms: _21  and  _22
REMARK   11  A    between atoms: _21  and  _24
REMARK   12  A    between atoms: _27  and  _29
REMARK   13  A    between atoms: _29  and  _30
REMARK   14  A    between atoms: _29  and  _32
REMARK   15  A    between atoms: _32  and  _33
REMARK   16  A    between atoms: _36  and  _38
REMARK   17  A    between atoms: _38  and  _39
REMARK   18  A    between atoms: _38  and  _41
REMARK   19  A    between atoms: _44  and  _46
REMARK   20  A    between atoms: _46  and  _47
REMARK   21  A    between atoms: _46  and  _49
REMARK   22  A    between atoms: _52  and  _54
REMARK   23  A    between atoms: _54  and  _55
REMARK   24  A    between atoms: _54  and  _57
REMARK   25  A    between atoms: _60  and  _62
REMARK   26  A    between atoms: _62  and  _63
REMARK   27  A    between atoms: _62  and  _65
REMARK   28  A    between atoms: _68  and  _70
REMARK   29  A    between atoms: _70  and  _71
REMARK   30  A    between atoms: _73  and  _75
REMARK   31  A    between atoms: _75  and  _76
REMARK   32  A    between atoms: _75  and  _78
REMARK   33  A    between atoms: _78  and  _79
REMARK   34  A    between atoms: _82  and  _84
REMARK   35  A    between atoms: _84  and  _85
REMARK   36  A    between atoms: _84  and  _87
REMARK   37  A    between atoms: _90  and  _92
REMARK   38  A    between atoms: _92  and  _93
REMARK   39  A    between atoms: _92  and  _95
REMARK   40  A    between atoms: _95  and  _96
REMARK   41  A    between atoms: _101  and  _103
REMARK   42  A    between atoms: _103  and  _104
REMARK   43  A    between atoms: _103  and  _106
REMARK   44  A    between atoms: _106  and  _107
REMARK   45  A    between atoms: _110  and  _112
REMARK   46  A    between atoms: _112  and  _113
REMARK   47  A    between atoms: _112  and  _115
REMARK   48  A    between atoms: _118  and  _120
REMARK   49  A    between atoms: _120  and  _121
REMARK   50  A    between atoms: _120  and  _123
REMARK   51  A    between atoms: _123  and  _124
REMARK   52  A    between atoms: _129  and  _131
REMARK   53  A    between atoms: _131  and  _132
REMARK   54  A    between atoms: _131  and  _134
REMARK   55  A    between atoms: _134  and  _135
REMARK   56  A    between atoms: _138  and  _139
REMARK   57  A    between atoms: _144  and  _146
REMARK   58  A    between atoms: _146  and  _147
REMARK   59  A    between atoms: _149  and  _151
REMARK   60  A    between atoms: _151  and  _152
REMARK   61  A    between atoms: _151  and  _154
REMARK   62  A    between atoms: _154  and  _155
REMARK   63  A    between atoms: _158  and  _160
REMARK   64  A    between atoms: _160  and  _161
REMARK   65  A    between atoms: _160  and  _163
REMARK   66  A    between atoms: _163  and  _164
REMARK   67  A    between atoms: _167  and  _169
REMARK   68  A    between atoms: _169  and  _170
REMARK   69  A    between atoms: _169  and  _172
REMARK   70  A    between atoms: _172  and  _173
REMARK   71  A    between atoms: _176  and  _178
REMARK   72  A    between atoms: _178  and  _179
REMARK   73  A    between atoms: _182  and  _184
REMARK   74  A    between atoms: _184  and  _185
REMARK   75  A    between atoms: _187  and  _189
REMARK   76  A    between atoms: _189  and  _190
REMARK   77  A    between atoms: _189  and  _192
REMARK   78  A    between atoms: _192  and  _193
REMARK   79  A    between atoms: _198  and  _199
REMARK   80  A    between atoms: _201  and  _203
REMARK   81  A    between atoms: _203  and  _204
REMARK   82  A    between atoms: _203  and  _206
REMARK   83  A    between atoms: _206  and  _207
REMARK   84  A    between atoms: _207  and  _208
REMARK   85  A    between atoms: _208  and  _209
REMARK   86  A    between atoms: _218  and  _220
REMARK   87  A    between atoms: _220  and  _221
REMARK   88  A    between atoms: _223  and  _225
REMARK   89  A    between atoms: _225  and  _226
REMARK   90  A    between atoms: _225  and  _228
REMARK   91  A    between atoms: _228  and  _229
REMARK   92  A    between atoms: _229  and  _230
REMARK   93  A    between atoms: _233  and  _235
REMARK   94  A    between atoms: _235  and  _236
REMARK   95  A    between atoms: _235  and  _238
REMARK   96  A    between atoms: _238  and  _239
REMARK   97  A    between atoms: _242  and  _244
REMARK   98  A    between atoms: _244  and  _245
REMARK   99  A    between atoms: _244  and  _247
REMARK  100  A    between atoms: _247  and  _248
REMARK  101  A    between atoms: _248  and  _249
REMARK  102  A    between atoms: _249  and  _250
REMARK  103  A    between atoms: _250  and  _251
REMARK  104  A    between atoms: _255  and  _257
REMARK  105  A    between atoms: _257  and  _258
REMARK  106  A    between atoms: _257  and  _260
REMARK  107  A    between atoms: _263  and  _265
REMARK  108  A    between atoms: _265  and  _266
REMARK  109  A    between atoms: _269  and  _271
REMARK  110  A    between atoms: _271  and  _272
REMARK  111  A    between atoms: _271  and  _274
REMARK  112  A    between atoms: _274  and  _275
REMARK  113  A    between atoms: _278  and  _280
REMARK  114  A    between atoms: _280  and  _281
REMARK  115  A    between atoms: _280  and  _283
REMARK  116  A    between atoms: _283  and  _284
REMARK  117  A    between atoms: _284  and  _285
REMARK  118  A    between atoms: _285  and  _286
REMARK  119  A    between atoms: _295  and  _297
REMARK  120  A    between atoms: _297  and  _298
REMARK  121  A    between atoms: _301  and  _303
REMARK  122  A    between atoms: _303  and  _304
REMARK  123  A    between atoms: _303  and  _306
REMARK  124  A    between atoms: _306  and  _307
REMARK  125  A    between atoms: _312  and  _314
REMARK  126  A    between atoms: _314  and  _315
REMARK  127  A    between atoms: _314  and  _317
REMARK  128  A    between atoms: _317  and  _318
REMARK  129  A    between atoms: _321  and  _323
REMARK  130  A    between atoms: _323  and  _324
REMARK  131  A    between atoms: _327  and  _329
REMARK  132  A    between atoms: _329  and  _330
REMARK  133  A    between atoms: _332  and  _334
REMARK  134  A    between atoms: _334  and  _335
REMARK  135  A    between atoms: _334  and  _337
REMARK  136  A    between atoms: _337  and  _338
REMARK  137  A    between atoms: _341  and  _343
REMARK  138  A    between atoms: _343  and  _344
REMARK  139  A    between atoms: _343  and  _346
REMARK  140  A    between atoms: _346  and  _347
REMARK  141  A    between atoms: _353  and  _354
REMARK  142  A    between atoms: _359  and  _361
REMARK  143  A    between atoms: _361  and  _362
REMARK  144  A    between atoms: _361  and  _364
REMARK  145  A    between atoms: _364  and  _365
REMARK  146  A    between atoms: _365  and  _366
REMARK  147  A    between atoms: _366  and  _367
REMARK  148  A    between atoms: _376  and  _378
REMARK  149  A    between atoms: _378  and  _379
REMARK  150  A    between atoms: _378  and  _381
REMARK  151  A    between atoms: _381  and  _382
REMARK  152  A    between atoms: _384  and  _386
REMARK  153  A    between atoms: _386  and  _387
REMARK  154  A    between atoms: _389  and  _391
REMARK  155  A    between atoms: _391  and  _392
REMARK  156  A    between atoms: _391  and  _394
REMARK  157  A    between atoms: _394  and  _395
REMARK  158  A    between atoms: _398  and  _400
REMARK  159  A    between atoms: _400  and  _401
REMARK  160  A    between atoms: _404  and  _406
REMARK  161  A    between atoms: _406  and  _407
REMARK  162  A    between atoms: _406  and  _409
REMARK  163  A    between atoms: _409  and  _410
REMARK  164  A    between atoms: _413  and  _415
REMARK  165  A    between atoms: _415  and  _416
REMARK  166  A    between atoms: _415  and  _418
REMARK  167  A    between atoms: _420  and  _422
REMARK  168  A    between atoms: _422  and  _423
REMARK  169  A    between atoms: _422  and  _425
REMARK  170  A    between atoms: _425  and  _426
REMARK  171  A    between atoms: _426  and  _427
REMARK  172  A    between atoms: _427  and  _428
REMARK  173  A    between atoms: _437  and  _439
REMARK  174  A    between atoms: _439  and  _440
REMARK  175  A    between atoms: _443  and  _445
REMARK  176  A    between atoms: _445  and  _446
REMARK  177  A    between atoms: _445  and  _448
REMARK  178  A    between atoms: _448  and  _449
REMARK  179  A    between atoms: _449  and  _450
REMARK  180  A    between atoms: _455  and  _457
REMARK  181  A    between atoms: _457  and  _458
REMARK  182  A    between atoms: _457  and  _460
REMARK  183  A    between atoms: _460  and  _461
REMARK  184  A    between atoms: _464  and  _466
REMARK  185  A    between atoms: _466  and  _467
REMARK  186  A    between atoms: _466  and  _469
REMARK  187  A    between atoms: _469  and  _470
REMARK  188  A    between atoms: _470  and  _471
REMARK  189  A    between atoms: _471  and  _472
REMARK  190  A    between atoms: _481  and  _483
REMARK  191  A    between atoms: _483  and  _484
REMARK  192  A    between atoms: _486  and  _488
REMARK  193  A    between atoms: _488  and  _489
REMARK  194  A    between atoms: _488  and  _491
REMARK  195  A    between atoms: _491  and  _492
REMARK  196  A    between atoms: _495  and  _497
REMARK  197  A    between atoms: _497  and  _498
REMARK  198  A    between atoms: _500  and  _502
REMARK  199  A    between atoms: _502  and  _503
REMARK  200  A    between atoms: _505  and  _507
REMARK  201  A    between atoms: _507  and  _508
REMARK  202  A    between atoms: _507  and  _510
REMARK  203  A    between atoms: _510  and  _511
REMARK  204  A    between atoms: _516  and  _518
REMARK  205  A    between atoms: _518  and  _519
REMARK  206  A    between atoms: _521  and  _523
REMARK  207  A    between atoms: _523  and  _524
REMARK  208  A    between atoms: _523  and  _526
REMARK  209  A    between atoms: _526  and  _527
REMARK  210  A    between atoms: _529  and  _531
REMARK  211  A    between atoms: _531  and  _532
REMARK  212  A    between atoms: _531  and  _534
REMARK  213  A    between atoms: _534  and  _535
REMARK  214  A    between atoms: _537  and  _539
REMARK  215  A    between atoms: _539  and  _540
REMARK  216  A    between atoms: _542  and  _544
REMARK  217  A    between atoms: _544  and  _545
REMARK  218  A    between atoms: _547  and  _549
REMARK  219  A    between atoms: _549  and  _550
REMARK  220  A    between atoms: _549  and  _552
REMARK  221  A    between atoms: _552  and  _553
REMARK                            x       y       z     vdW  Elec       q    Type
REMARK                         _______ _______ _______ _____ _____    ______ ____
ROOT
ATOM      1  CA  LEU A   1      14.217  25.659  39.483  0.00  0.00    +0.133 C 
ENDROOT
BRANCH   1   2
ATOM      2  N   LEU A   1      15.448  26.217  39.006  0.00  0.00    -0.239 NA
ATOM      3  H   LEU A   1      16.345  25.853  39.385  0.00  0.00    +0.142 HD
ENDBRANCH   1   2
BRANCH   1   4
ATOM      4  C   LEU A   1      13.805  26.352  40.763  0.00  0.00    +0.224 C 
ATOM      5  O   LEU A   1      14.651  26.691  41.615  0.00  0.00    -0.287 OA
ENDBRANCH   1   4
BRANCH   1   6
ATOM      6  CB  LEU A   1      14.475  24.206  39.846  0.00  0.00    +0.025 C 
BRANCH   6   7
ATOM      7  CG  LEU A   1      14.824  23.339  38.610  0.00  0.00    +0.002 C 
ATOM      8  CD2 LEU A   1      15.242  21.956  39.075  0.00  0.00    +0.000 C 
ATOM      9  CD1 LEU A   1      13.575  23.175  37.727  0.00  0.00    +0.000 C 
ENDBRANCH   6   7
ENDBRANCH   1   6
TORSDOF 4
REMARK  Name = ../refined-set-2016/2py4/2py4_pocket.pdb
REMARK  221 active torsions:
REMARK  status: ('A' for Active; 'I' for Inactive)
REMARK    1  A    between atoms: _1  and  _3
REMARK    2  A    between atoms: _3  and  _4
REMARK    3  A    between atoms: _3  and  _6
REMARK    4  A    between atoms: _6  and  _7
REMARK    5  A    between atoms: _10  and  _12
REMARK    6  A    between atoms: _12  and  _13
REMARK    7  A    between atoms: _12  and  _15
REMARK    8  A    between atoms: _15  and  _16
REMARK    9  A    between atoms: _19  and  _21
REMARK   10  A    between atoms: _21  and  _22
REMARK   11  A    between atoms: _21  and  _24
REMARK   12  A    between atoms: _27  and  _29
REMARK   13  A    between atoms: _29  and  _30
REMARK   14  A    between atoms: _29  and  _32
REMARK   15  A    between atoms: _32  and  _33
REMARK   16  A    between atoms: _36  and  _38
REMARK   17  A    between atoms: _38  and  _39
REMARK   18  A    between atoms: _38  and  _41
REMARK   19  A    between atoms: _44  and  _46
REMARK   20  A    between atoms: _46  and  _47
REMARK   21  A    between atoms: _46  and  _49
REMARK   22  A    between atoms: _52  and  _54
REMARK   23  A    between atoms: _54  and  _55
REMARK   24  A    between atoms: _54  and  _57
REMARK   25  A    between atoms: _60  and  _62
REMARK   26  A    between atoms: _62  and  _63
REMARK   27  A    between atoms: _62  and  _65
REMARK   28  A    between atoms: _68  and  _70
REMARK   29  A    between atoms: _70  and  _71
REMARK   30  A    between atoms: _73  and  _75
REMARK   31  A    between atoms: _75  and  _76
REMARK   32  A    between atoms: _75  and  _78
REMARK   33  A    between atoms: _78  and  _79
REMARK   34  A    between atoms: _82  and  _84
REMARK   35  A    between atoms: _84  and  _85
REMARK   36  A    between atoms: _84  and  _87
REMARK   37  A    between atoms: _90  and  _92
REMARK   38  A    between atoms: _92  and  _93
REMARK   39  A    between atoms: _92  and  _95
REMARK   40  A    between atoms: _95  and  _96
REMARK   41  A    between atoms: _101  and  _103
REMARK   42  A    between atoms: _103  and  _104
REMARK   43  A    between atoms: _103  and  _106
REMARK   44  A    between atoms: _106  and  _107
REMARK   45  A    between atoms: _110  and  _112
REMARK   46  A    between atoms: _112  and  _113
REMARK   47  A    between atoms: _112  and  _115
REMARK   48  A    between atoms: _118  and  _120
REMARK   49  A    between atoms: _120  and  _121
REMARK   50  A    between atoms: _120  and  _123
REMARK   51  A    between atoms: _123  and  _124
REMARK   52  A    between atoms: _129  and  _131
REMARK   53  A    between atoms: _131  and  _132
REMARK   54  A    between atoms: _131  and  _134
REMARK   55  A    between atoms: _134  and  _135
REMARK   56  A    between atoms: _138  and  _139
REMARK   57  A    between atoms: _144  and  _146
REMARK   58  A    between atoms: _146  and  _147
REMARK   59  A    between atoms: _149  and  _151
REMARK   60  A    between atoms: _151  and  _152
REMARK   61  A    between atoms: _151  and  _154
REMARK   62  A    between atoms: _154  and  _155
REMARK   63  A    between atoms: _158  and  _160
REMARK   64  A    between atoms: _160  and  _161
REMARK   65  A    between atoms: _160  and  _163
REMARK   66  A    between atoms: _163  and  _164
REMARK   67  A    between atoms: _167  and  _169
REMARK   68  A    between atoms: _169  and  _170
REMARK   69  A    between atoms: _169  and  _172
REMARK   70  A    between atoms: _172  and  _173
REMARK   71  A    between atoms: _176  and  _178
REMARK   72  A    between atoms: _178  and  _179
REMARK   73  A    between atoms: _182  and  _184
REMARK   74  A    between atoms: _184  and  _185
REMARK   75  A    between atoms: _187  and  _189
REMARK   76  A    between atoms: _189  and  _190
REMARK   77  A    between atoms: _189  and  _192
REMARK   78  A    between atoms: _192  and  _193
REMARK   79  A    between atoms: _198  and  _199
REMARK   80  A    between atoms: _201  and  _203
REMARK   81  A    between atoms: _203  and  _204
REMARK   82  A    between atoms: _203  and  _206
REMARK   83  A    between atoms: _206  and  _207
REMARK   84  A    between atoms: _207  and  _208
REMARK   85  A    between atoms: _208  and  _209
REMARK   86  A    between atoms: _218  and  _220
REMARK   87  A    between atoms: _220  and  _221
REMARK   88  A    between atoms: _223  and  _225
REMARK   89  A    between atoms: _225  and  _226
REMARK   90  A    between atoms: _225  and  _228
REMARK   91  A    between atoms: _228  and  _229
REMARK   92  A    between atoms: _229  and  _230
REMARK   93  A    between atoms: _233  and  _235
REMARK   94  A    between atoms: _235  and  _236
REMARK   95  A    between atoms: _235  and  _238
REMARK   96  A    between atoms: _238  and  _239
REMARK   97  A    between atoms: _242  and  _244
REMARK   98  A    between atoms: _244  and  _245
REMARK   99  A    between atoms: _244  and  _247
REMARK  100  A    between atoms: _247  and  _248
REMARK  101  A    between atoms: _248  and  _249
REMARK  102  A    between atoms: _249  and  _250
REMARK  103  A    between atoms: _250  and  _251
REMARK  104  A    between atoms: _255  and  _257
REMARK  105  A    between atoms: _257  and  _258
REMARK  106  A    between atoms: _257  and  _260
REMARK  107  A    between atoms: _263  and  _265
REMARK  108  A    between atoms: _265  and  _266
REMARK  109  A    between atoms: _269  and  _271
REMARK  110  A    between atoms: _271  and  _272
REMARK  111  A    between atoms: _271  and  _274
REMARK  112  A    between atoms: _274  and  _275
REMARK  113  A    between atoms: _278  and  _280
REMARK  114  A    between atoms: _280  and  _281
REMARK  115  A    between atoms: _280  and  _283
REMARK  116  A    between atoms: _283  and  _284
REMARK  117  A    between atoms: _284  and  _285
REMARK  118  A    between atoms: _285  and  _286
REMARK  119  A    between atoms: _295  and  _297
REMARK  120  A    between atoms: _297  and  _298
REMARK  121  A    between atoms: _301  and  _303
REMARK  122  A    between atoms: _303  and  _304
REMARK  123  A    between atoms: _303  and  _306
REMARK  124  A    between atoms: _306  and  _307
REMARK  125  A    between atoms: _312  and  _314
REMARK  126  A    between atoms: _314  and  _315
REMARK  127  A    between atoms: _314  and  _317
REMARK  128  A    between atoms: _317  and  _318
REMARK  129  A    between atoms: _321  and  _323
REMARK  130  A    between atoms: _323  and  _324
REMARK  131  A    between atoms: _327  and  _329
REMARK  132  A    between atoms: _329  and  _330
REMARK  133  A    between atoms: _332  and  _334
REMARK  134  A    between atoms: _334  and  _335
REMARK  135  A    between atoms: _334  and  _337
REMARK  136  A    between atoms: _337  and  _338
REMARK  137  A    between atoms: _341  and  _343
REMARK  138  A    between atoms: _343  and  _344
REMARK  139  A    between atoms: _343  and  _346
REMARK  140  A    between atoms: _346  and  _347
REMARK  141  A    between atoms: _353  and  _354
REMARK  142  A    between atoms: _359  and  _361
REMARK  143  A    between atoms: _361  and  _362
REMARK  144  A    between atoms: _361  and  _364
REMARK  145  A    between atoms: _364  and  _365
REMARK  146  A    between atoms: _365  and  _366
REMARK  147  A    between atoms: _366  and  _367
REMARK  148  A    between atoms: _376  and  _378
REMARK  149  A    between atoms: _378  and  _379
REMARK  150  A    between atoms: _378  and  _381
REMARK  151  A    between atoms: _381  and  _382
REMARK  152  A    between atoms: _384  and  _386
REMARK  153  A    between atoms: _386  and  _387
REMARK  154  A    between atoms: _389  and  _391
REMARK  155  A    between atoms: _391  and  _392
REMARK  156  A    between atoms: _391  and  _394
REMARK  157  A    between atoms: _394  and  _395
REMARK  158  A    between atoms: _398  and  _400
REMARK  159  A    between atoms: _400  and  _401
REMARK  160  A    between atoms: _404  and  _406
REMARK  161  A    between atoms: _406  and  _407
REMARK  162  A    between atoms: _406  and  _409
REMARK  163  A    between atoms: _409  and  _410
REMARK  164  A    between atoms: _413  and  _415
REMARK  165  A    between atoms: _415  and  _416
REMARK  166  A    between atoms: _415  and  _418
REMARK  167  A    between atoms: _420  and  _422
REMARK  168  A    between atoms: _422  and  _423
REMARK  169  A    between atoms: _422  and  _425
REMARK  170  A    between atoms: _425  and  _426
REMARK  171  A    between atoms: _426  and  _427
REMARK  172  A    between atoms: _427  and  _428
REMARK  173  A    between atoms: _437  and  _439
REMARK  174  A    between atoms: _439  and  _440
REMARK  175  A    between atoms: _443  and  _445
REMARK  176  A    between atoms: _445  and  _446
REMARK  177  A    between atoms: _445  and  _448
REMARK  178  A    between atoms: _448  and  _449
REMARK  179  A    between atoms: _449  and  _450
REMARK  180  A    between atoms: _455  and  _457
REMARK  181  A    between atoms: _457  and  _458
REMARK  182  A    between atoms: _457  and  _460
REMARK  183  A    between atoms: _460  and  _461
REMARK  184  A    between atoms: _464  and  _466
REMARK  185  A    between atoms: _466  and  _467
REMARK  186  A    between atoms: _466  and  _469
REMARK  187  A    between atoms: _469  and  _470
REMARK  188  A    between atoms: _470  and  _471
REMARK  189  A    between atoms: _471  and  _472
REMARK  190  A    between atoms: _481  and  _483
REMARK  191  A    between atoms: _483  and  _484
REMARK  192  A    between atoms: _486  and  _488
REMARK  193  A    between atoms: _488  and  _489
REMARK  194  A    between atoms: _488  and  _491
REMARK  195  A    between atoms: _491  and  _492
REMARK  196  A    between atoms: _495  and  _497
REMARK  197  A    between atoms: _497  and  _498
REMARK  198  A    between atoms: _500  and  _502
REMARK  199  A    between atoms: _502  and  _503
REMARK  200  A    between atoms: _505  and  _507
REMARK  201  A    between atoms: _507  and  _508
REMARK  202  A    between atoms: _507  and  _510
REMARK  203  A    between atoms: _510  and  _511
REMARK  204  A    between atoms: _516  and  _518
REMARK  205  A    between atoms: _518  and  _519
REMARK  206  A    between atoms: _521  and  _523
REMARK  207  A    between atoms: _523  and  _524
REMARK  208  A    between atoms: _523  and  _526
REMARK  209  A    between atoms: _526  and  _527
REMARK  210  A    between atoms: _529  and  _531
REMARK  211  A    between atoms: _531  and  _532
REMARK  212  A    between atoms: _531  and  _534
REMARK  213  A    between atoms: _534  and  _535
REMARK  214  A    between atoms: _537  and  _539
REMARK  215  A    between atoms: _539  and  _540
REMARK  216  A    between atoms: _542  and  _544
REMARK  217  A    between atoms: _544  and  _545
REMARK  218  A    between atoms: _547  and  _549
REMARK  219  A    between atoms: _549  and  _550
REMARK  220  A    between atoms: _549  and  _552
REMARK  221  A    between atoms: _552  and  _553
REMARK                            x       y       z     vdW  Elec       q    Type
REMARK                         _______ _______ _______ _____ _____    ______ ____
ROOT
ATOM      1  C   LEU A   1      11.284  17.354  48.745  0.00  0.00    +0.238 C 
ATOM      2  O   LEU A   1      10.123  17.370  49.160  0.00  0.00    -0.274 OA
ATOM      3  N   VAL A   2      11.795  18.296  47.947  0.00  0.00    -0.298 N 
ATOM      4  H   VAL A   2      12.706  18.139  47.470  0.00  0.00    +0.150 HD
ENDROOT
BRANCH   1   5
ATOM      5  CA  LEU A   1      12.250  16.274  49.198  0.00  0.00    +0.145 C 
BRANCH   5   6
ATOM      6  N   LEU A   1      12.478  16.464  50.591  0.00  0.00    -0.238 NA
ATOM      7  H   LEU A   1      11.732  16.219  51.273  0.00  0.00    +0.142 HD
ENDBRANCH   5   6
BRANCH   5   8
ATOM      8  CB  LEU A   1      11.688  14.883  48.952  0.00  0.00    +0.026 C 
BRANCH   8   9
ATOM      9  CG  LEU A   1      11.482  14.641  47.470  0.00  0.00    +0.002 C 
ATOM     10  CD2 LEU A   1      10.854  13.203  47.344  0.00  0.00    +0.000 C 
ATOM     11  CD1 LEU A   1      12.814  14.692  46.629  0.00  0.00    +0.000 C 
ENDBRANCH   8   9
ENDBRANCH   5   8
ENDBRANCH   1   5
BRANCH   3  12
ATOM     12  CA  VAL A   2      11.067  19.552  47.747  0.00  0.00    +0.137 C 
BRANCH  12  13
ATOM     13  CB  VAL A   2      12.049  20.730  47.937  0.00  0.00    +0.026 C 
ATOM     14  CG2 VAL A   2      12.628  20.616  49.375  0.00  0.00    +0.002 C 
ATOM     15  CG1 VAL A   2      11.318  22.068  47.775  0.00  0.00    +0.002 C 
ENDBRANCH  12  13
BRANCH  12  16
ATOM     16  C   VAL A   2      10.464  19.594  46.383  0.00  0.00    +0.227 C 
ATOM     17  O   VAL A   2      11.153  19.356  45.382  0.00  0.00    -0.286 OA
ENDBRANCH  12  16
ENDBRANCH   3  12
TORSDOF 7
REMARK  Name = ../refined-set-2016/2py4/2py4_pocket.pdb
REMARK  221 active torsions:
REMARK  status: ('A' for Active; 'I' for Inactive)
REMARK    1  A    between atoms: _1  and  _3
REMARK    2  A    between atoms: _3  and  _4
REMARK    3  A    between atoms: _3  and  _6
REMARK    4  A    between atoms: _6  and  _7
REMARK    5  A    between atoms: _10  and  _12
REMARK    6  A    between atoms: _12  and  _13
REMARK    7  A    between atoms: _12  and  _15
REMARK    8  A    between atoms: _15  and  _16
REMARK    9  A    between atoms: _19  and  _21
REMARK   10  A    between atoms: _21  and  _22
REMARK   11  A    between atoms: _21  and  _24
REMARK   12  A    between atoms: _27  and  _29
REMARK   13  A    between atoms: _29  and  _30
REMARK   14  A    between atoms: _29  and  _32
REMARK   15  A    between atoms: _32  and  _33
REMARK   16  A    between atoms: _36  and  _38
REMARK   17  A    between atoms: _38  and  _39
REMARK   18  A    between atoms: _38  and  _41
REMARK   19  A    between atoms: _44  and  _46
REMARK   20  A    between atoms: _46  and  _47
REMARK   21  A    between atoms: _46  and  _49
REMARK   22  A    between atoms: _52  and  _54
REMARK   23  A    between atoms: _54  and  _55
REMARK   24  A    between atoms: _54  and  _57
REMARK   25  A    between atoms: _60  and  _62
REMARK   26  A    between atoms: _62  and  _63
REMARK   27  A    between atoms: _62  and  _65
REMARK   28  A    between atoms: _68  and  _70
REMARK   29  A    between atoms: _70  and  _71
REMARK   30  A    between atoms: _73  and  _75
REMARK   31  A    between atoms: _75  and  _76
REMARK   32  A    between atoms: _75  and  _78
REMARK   33  A    between atoms: _78  and  _79
REMARK   34  A    between atoms: _82  and  _84
REMARK   35  A    between atoms: _84  and  _85
REMARK   36  A    between atoms: _84  and  _87
REMARK   37  A    between atoms: _90  and  _92
REMARK   38  A    between atoms: _92  and  _93
REMARK   39  A    between atoms: _92  and  _95
REMARK   40  A    between atoms: _95  and  _96
REMARK   41  A    between atoms: _101  and  _103
REMARK   42  A    between atoms: _103  and  _104
REMARK   43  A    between atoms: _103  and  _106
REMARK   44  A    between atoms: _106  and  _107
REMARK   45  A    between atoms: _110  and  _112
REMARK   46  A    between atoms: _112  and  _113
REMARK   47  A    between atoms: _112  and  _115
REMARK   48  A    between atoms: _118  and  _120
REMARK   49  A    between atoms: _120  and  _121
REMARK   50  A    between atoms: _120  and  _123
REMARK   51  A    between atoms: _123  and  _124
REMARK   52  A    between atoms: _129  and  _131
REMARK   53  A    between atoms: _131  and  _132
REMARK   54  A    between atoms: _131  and  _134
REMARK   55  A    between atoms: _134  and  _135
REMARK   56  A    between atoms: _138  and  _139
REMARK   57  A    between atoms: _144  and  _146
REMARK   58  A    between atoms: _146  and  _147
REMARK   59  A    between atoms: _149  and  _151
REMARK   60  A    between atoms: _151  and  _152
REMARK   61  A    between atoms: _151  and  _154
REMARK   62  A    between atoms: _154  and  _155
REMARK   63  A    between atoms: _158  and  _160
REMARK   64  A    between atoms: _160  and  _161
REMARK   65  A    between atoms: _160  and  _163
REMARK   66  A    between atoms: _163  and  _164
REMARK   67  A    between atoms: _167  and  _169
REMARK   68  A    between atoms: _169  and  _170
REMARK   69  A    between atoms: _169  and  _172
REMARK   70  A    between atoms: _172  and  _173
REMARK   71  A    between atoms: _176  and  _178
REMARK   72  A    between atoms: _178  and  _179
REMARK   73  A    between atoms: _182  and  _184
REMARK   74  A    between atoms: _184  and  _185
REMARK   75  A    between atoms: _187  and  _189
REMARK   76  A    between atoms: _189  and  _190
REMARK   77  A    between atoms: _189  and  _192
REMARK   78  A    between atoms: _192  and  _193
REMARK   79  A    between atoms: _198  and  _199
REMARK   80  A    between atoms: _201  and  _203
REMARK   81  A    between atoms: _203  and  _204
REMARK   82  A    between atoms: _203  and  _206
REMARK   83  A    between atoms: _206  and  _207
REMARK   84  A    between atoms: _207  and  _208
REMARK   85  A    between atoms: _208  and  _209
REMARK   86  A    between atoms: _218  and  _220
REMARK   87  A    between atoms: _220  and  _221
REMARK   88  A    between atoms: _223  and  _225
REMARK   89  A    between atoms: _225  and  _226
REMARK   90  A    between atoms: _225  and  _228
REMARK   91  A    between atoms: _228  and  _229
REMARK   92  A    between atoms: _229  and  _230
REMARK   93  A    between atoms: _233  and  _235
REMARK   94  A    between atoms: _235  and  _236
REMARK   95  A    between atoms: _235  and  _238
REMARK   96  A    between atoms: _238  and  _239
REMARK   97  A    between atoms: _242  and  _244
REMARK   98  A    between atoms: _244  and  _245
REMARK   99  A    between atoms: _244  and  _247
REMARK  100  A    between atoms: _247  and  _248
REMARK  101  A    between atoms: _248  and  _249
REMARK  102  A    between atoms: _249  and  _250
REMARK  103  A    between atoms: _250  and  _251
REMARK  104  A    between atoms: _255  and  _257
REMARK  105  A    between atoms: _257  and  _258
REMARK  106  A    between atoms: _257  and  _260
REMARK  107  A    between atoms: _263  and  _265
REMARK  108  A    between atoms: _265  and  _266
REMARK  109  A    between atoms: _269  and  _271
REMARK  110  A    between atoms: _271  and  _272
REMARK  111  A    between atoms: _271  and  _274
REMARK  112  A    between atoms: _274  and  _275
REMARK  113  A    between atoms: _278  and  _280
REMARK  114  A    between atoms: _280  and  _281
REMARK  115  A    between atoms: _280  and  _283
REMARK  116  A    between atoms: _283  and  _284
REMARK  117  A    between atoms: _284  and  _285
REMARK  118  A    between atoms: _285  and  _286
REMARK  119  A    between atoms: _295  and  _297
REMARK  120  A    between atoms: _297  and  _298
REMARK  121  A    between atoms: _301  and  _303
REMARK  122  A    between atoms: _303  and  _304
REMARK  123  A    between atoms: _303  and  _306
REMARK  124  A    between atoms: _306  and  _307
REMARK  125  A    between atoms: _312  and  _314
REMARK  126  A    between atoms: _314  and  _315
REMARK  127  A    between atoms: _314  and  _317
REMARK  128  A    between atoms: _317  and  _318
REMARK  129  A    between atoms: _321  and  _323
REMARK  130  A    between atoms: _323  and  _324
REMARK  131  A    between atoms: _327  and  _329
REMARK  132  A    between atoms: _329  and  _330
REMARK  133  A    between atoms: _332  and  _334
REMARK  134  A    between atoms: _334  and  _335
REMARK  135  A    between atoms: _334  and  _337
REMARK  136  A    between atoms: _337  and  _338
REMARK  137  A    between atoms: _341  and  _343
REMARK  138  A    between atoms: _343  and  _344
REMARK  139  A    between atoms: _343  and  _346
REMARK  140  A    between atoms: _346  and  _347
REMARK  141  A    between atoms: _353  and  _354
REMARK  142  A    between atoms: _359  and  _361
REMARK  143  A    between atoms: _361  and  _362
REMARK  144  A    between atoms: _361  and  _364
REMARK  145  A    between atoms: _364  and  _365
REMARK  146  A    between atoms: _365  and  _366
REMARK  147  A    between atoms: _366  and  _367
REMARK  148  A    between atoms: _376  and  _378
REMARK  149  A    between atoms: _378  and  _379
REMARK  150  A    between atoms: _378  and  _381
REMARK  151  A    between atoms: _381  and  _382
REMARK  152  A    between atoms: _384  and  _386
REMARK  153  A    between atoms: _386  and  _387
REMARK  154  A    between atoms: _389  and  _391
REMARK  155  A    between atoms: _391  and  _392
REMARK  156  A    between atoms: _391  and  _394
REMARK  157  A    between atoms: _394  and  _395
REMARK  158  A    between atoms: _398  and  _400
REMARK  159  A    between atoms: _400  and  _401
REMARK  160  A    between atoms: _404  and  _406
REMARK  161  A    between atoms: _406  and  _407
REMARK  162  A    between atoms: _406  and  _409
REMARK  163  A    between atoms: _409  and  _410
REMARK  164  A    between atoms: _413  and  _415
REMARK  165  A    between atoms: _415  and  _416
REMARK  166  A    between atoms: _415  and  _418
REMARK  167  A    between atoms: _420  and  _422
REMARK  168  A    between atoms: _422  and  _423
REMARK  169  A    between atoms: _422  and  _425
REMARK  170  A    between atoms: _425  and  _426
REMARK  171  A    between atoms: _426  and  _427
REMARK  172  A    between atoms: _427  and  _428
REMARK  173  A    between atoms: _437  and  _439
REMARK  174  A    between atoms: _439  and  _440
REMARK  175  A    between atoms: _443  and  _445
REMARK  176  A    between atoms: _445  and  _446
REMARK  177  A    between atoms: _445  and  _448
REMARK  178  A    between atoms: _448  and  _449
REMARK  179  A    between atoms: _449  and  _450
REMARK  180  A    between atoms: _455  and  _457
REMARK  181  A    between atoms: _457  and  _458
REMARK  182  A    between atoms: _457  and  _460
REMARK  183  A    between atoms: _460  and  _461
REMARK  184  A    between atoms: _464  and  _466
REMARK  185  A    between atoms: _466  and  _467
REMARK  186  A    between atoms: _466  and  _469
REMARK  187  A    between atoms: _469  and  _470
REMARK  188  A    between atoms: _470  and  _471
REMARK  189  A    between atoms: _471  and  _472
REMARK  190  A    between atoms: _481  and  _483
REMARK  191  A    between atoms: _483  and  _484
REMARK  192  A    between atoms: _486  and  _488
REMARK  193  A    between atoms: _488  and  _489
REMARK  194  A    between atoms: _488  and  _491
REMARK  195  A    between atoms: _491  and  _492
REMARK  196  A    between atoms: _495  and  _497
REMARK  197  A    between atoms: _497  and  _498
REMARK  198  A    between atoms: _500  and  _502
REMARK  199  A    between atoms: _502  and  _503
REMARK  200  A    between atoms: _505  and  _507
REMARK  201  A    between atoms: _507  and  _508
REMARK  202  A    between atoms: _507  and  _510
REMARK  203  A    between atoms: _510  and  _511
REMARK  204  A    between atoms: _516  and  _518
REMARK  205  A    between atoms: _518  and  _519
REMARK  206  A    between atoms: _521  and  _523
REMARK  207  A    between atoms: _523  and  _524
REMARK  208  A    between atoms: _523  and  _526
REMARK  209  A    between atoms: _526  and  _527
REMARK  210  A    between atoms: _529  and  _531
REMARK  211  A    between atoms: _531  and  _532
REMARK  212  A    between atoms: _531  and  _534
REMARK  213  A    between atoms: _534  and  _535
REMARK  214  A    between atoms: _537  and  _539
REMARK  215  A    between atoms: _539  and  _540
REMARK  216  A    between atoms: _542  and  _544
REMARK  217  A    between atoms: _544  and  _545
REMARK  218  A    between atoms: _547  and  _549
REMARK  219  A    between atoms: _549  and  _550
REMARK  220  A    between atoms: _549  and  _552
REMARK  221  A    between atoms: _552  and  _553
REMARK                            x       y       z     vdW  Elec       q    Type
REMARK                         _______ _______ _______ _____ _____    ______ ____
ROOT
ATOM      1  CA  THR A   1       9.569  22.361  42.129  0.00  0.00    +0.160 C 
ENDROOT
BRANCH   1   2
ATOM      2  N   THR A   1       9.174  21.209  42.956  0.00  0.00    -0.237 NA
ATOM      3  H   THR A   1       9.049  20.283  42.499  0.00  0.00    +0.142 HD
ENDBRANCH   1   2
BRANCH   1   4
ATOM      4  C   THR A   1       8.399  22.905  41.358  0.00  0.00    +0.227 C 
ATOM      5  O   THR A   1       8.530  23.984  40.733  0.00  0.00    -0.287 OA
ENDBRANCH   1   4
BRANCH   1   6
ATOM      6  CB  THR A   1      10.622  22.008  41.104  0.00  0.00    +0.134 C 
ATOM      7  CG2 THR A   1      11.940  21.478  41.795  0.00  0.00    +0.034 C 
BRANCH   6   8
ATOM      8  OG1 THR A   1      10.086  21.051  40.186  0.00  0.00    -0.383 OA
ATOM      9  HG1 THR A   1       9.817  20.236  40.680  0.00  0.00    +0.210 HD
ENDBRANCH   6   8
ENDBRANCH   1   6
TORSDOF 4
REMARK  Name = ../refined-set-2016/2py4/2py4_pocket.pdb
REMARK  221 active torsions:
REMARK  status: ('A' for Active; 'I' for Inactive)
REMARK    1  A    between atoms: _1  and  _3
REMARK    2  A    between atoms: _3  and  _4
REMARK    3  A    between atoms: _3  and  _6
REMARK    4  A    between atoms: _6  and  _7
REMARK    5  A    between atoms: _10  and  _12
REMARK    6  A    between atoms: _12  and  _13
REMARK    7  A    between atoms: _12  and  _15
REMARK    8  A    between atoms: _15  and  _16
REMARK    9  A    between atoms: _19  and  _21
REMARK   10  A    between atoms: _21  and  _22
REMARK   11  A    between atoms: _21  and  _24
REMARK   12  A    between atoms: _27  and  _29
REMARK   13  A    between atoms: _29  and  _30
REMARK   14  A    between atoms: _29  and  _32
REMARK   15  A    between atoms: _32  and  _33
REMARK   16  A    between atoms: _36  and  _38
REMARK   17  A    between atoms: _38  and  _39
REMARK   18  A    between atoms: _38  and  _41
REMARK   19  A    between atoms: _44  and  _46
REMARK   20  A    between atoms: _46  and  _47
REMARK   21  A    between atoms: _46  and  _49
REMARK   22  A    between atoms: _52  and  _54
REMARK   23  A    between atoms: _54  and  _55
REMARK   24  A    between atoms: _54  and  _57
REMARK   25  A    between atoms: _60  and  _62
REMARK   26  A    between atoms: _62  and  _63
REMARK   27  A    between atoms: _62  and  _65
REMARK   28  A    between atoms: _68  and  _70
REMARK   29  A    between atoms: _70  and  _71
REMARK   30  A    between atoms: _73  and  _75
REMARK   31  A    between atoms: _75  and  _76
REMARK   32  A    between atoms: _75  and  _78
REMARK   33  A    between atoms: _78  and  _79
REMARK   34  A    between atoms: _82  and  _84
REMARK   35  A    between atoms: _84  and  _85
REMARK   36  A    between atoms: _84  and  _87
REMARK   37  A    between atoms: _90  and  _92
REMARK   38  A    between atoms: _92  and  _93
REMARK   39  A    between atoms: _92  and  _95
REMARK   40  A    between atoms: _95  and  _96
REMARK   41  A    between atoms: _101  and  _103
REMARK   42  A    between atoms: _103  and  _104
REMARK   43  A    between atoms: _103  and  _106
REMARK   44  A    between atoms: _106  and  _107
REMARK   45  A    between atoms: _110  and  _112
REMARK   46  A    between atoms: _112  and  _113
REMARK   47  A    between atoms: _112  and  _115
REMARK   48  A    between atoms: _118  and  _120
REMARK   49  A    between atoms: _120  and  _121
REMARK   50  A    between atoms: _120  and  _123
REMARK   51  A    between atoms: _123  and  _124
REMARK   52  A    between atoms: _129  and  _131
REMARK   53  A    between atoms: _131  and  _132
REMARK   54  A    between atoms: _131  and  _134
REMARK   55  A    between atoms: _134  and  _135
REMARK   56  A    between atoms: _138  and  _139
REMARK   57  A    between atoms: _144  and  _146
REMARK   58  A    between atoms: _146  and  _147
REMARK   59  A    between atoms: _149  and  _151
REMARK   60  A    between atoms: _151  and  _152
REMARK   61  A    between atoms: _151  and  _154
REMARK   62  A    between atoms: _154  and  _155
REMARK   63  A    between atoms: _158  and  _160
REMARK   64  A    between atoms: _160  and  _161
REMARK   65  A    between atoms: _160  and  _163
REMARK   66  A    between atoms: _163  and  _164
REMARK   67  A    between atoms: _167  and  _169
REMARK   68  A    between atoms: _169  and  _170
REMARK   69  A    between atoms: _169  and  _172
REMARK   70  A    between atoms: _172  and  _173
REMARK   71  A    between atoms: _176  and  _178
REMARK   72  A    between atoms: _178  and  _179
REMARK   73  A    between atoms: _182  and  _184
REMARK   74  A    between atoms: _184  and  _185
REMARK   75  A    between atoms: _187  and  _189
REMARK   76  A    between atoms: _189  and  _190
REMARK   77  A    between atoms: _189  and  _192
REMARK   78  A    between atoms: _192  and  _193
REMARK   79  A    between atoms: _198  and  _199
REMARK   80  A    between atoms: _201  and  _203
REMARK   81  A    between atoms: _203  and  _204
REMARK   82  A    between atoms: _203  and  _206
REMARK   83  A    between atoms: _206  and  _207
REMARK   84  A    between atoms: _207  and  _208
REMARK   85  A    between atoms: _208  and  _209
REMARK   86  A    between atoms: _218  and  _220
REMARK   87  A    between atoms: _220  and  _221
REMARK   88  A    between atoms: _223  and  _225
REMARK   89  A    between atoms: _225  and  _226
REMARK   90  A    between atoms: _225  and  _228
REMARK   91  A    between atoms: _228  and  _229
REMARK   92  A    between atoms: _229  and  _230
REMARK   93  A    between atoms: _233  and  _235
REMARK   94  A    between atoms: _235  and  _236
REMARK   95  A    between atoms: _235  and  _238
REMARK   96  A    between atoms: _238  and  _239
REMARK   97  A    between atoms: _242  and  _244
REMARK   98  A    between atoms: _244  and  _245
REMARK   99  A    between atoms: _244  and  _247
REMARK  100  A    between atoms: _247  and  _248
REMARK  101  A    between atoms: _248  and  _249
REMARK  102  A    between atoms: _249  and  _250
REMARK  103  A    between atoms: _250  and  _251
REMARK  104  A    between atoms: _255  and  _257
REMARK  105  A    between atoms: _257  and  _258
REMARK  106  A    between atoms: _257  and  _260
REMARK  107  A    between atoms: _263  and  _265
REMARK  108  A    between atoms: _265  and  _266
REMARK  109  A    between atoms: _269  and  _271
REMARK  110  A    between atoms: _271  and  _272
REMARK  111  A    between atoms: _271  and  _274
REMARK  112  A    between atoms: _274  and  _275
REMARK  113  A    between atoms: _278  and  _280
REMARK  114  A    between atoms: _280  and  _281
REMARK  115  A    between atoms: _280  and  _283
REMARK  116  A    between atoms: _283  and  _284
REMARK  117  A    between atoms: _284  and  _285
REMARK  118  A    between atoms: _285  and  _286
REMARK  119  A    between atoms: _295  and  _297
REMARK  120  A    between atoms: _297  and  _298
REMARK  121  A    between atoms: _301  and  _303
REMARK  122  A    between atoms: _303  and  _304
REMARK  123  A    between atoms: _303  and  _306
REMARK  124  A    between atoms: _306  and  _307
REMARK  125  A    between atoms: _312  and  _314
REMARK  126  A    between atoms: _314  and  _315
REMARK  127  A    between atoms: _314  and  _317
REMARK  128  A    between atoms: _317  and  _318
REMARK  129  A    between atoms: _321  and  _323
REMARK  130  A    between atoms: _323  and  _324
REMARK  131  A    between atoms: _327  and  _329
REMARK  132  A    between atoms: _329  and  _330
REMARK  133  A    between atoms: _332  and  _334
REMARK  134  A    between atoms: _334  and  _335
REMARK  135  A    between atoms: _334  and  _337
REMARK  136  A    between atoms: _337  and  _338
REMARK  137  A    between atoms: _341  and  _343
REMARK  138  A    between atoms: _343  and  _344
REMARK  139  A    between atoms: _343  and  _346
REMARK  140  A    between atoms: _346  and  _347
REMARK  141  A    between atoms: _353  and  _354
REMARK  142  A    between atoms: _359  and  _361
REMARK  143  A    between atoms: _361  and  _362
REMARK  144  A    between atoms: _361  and  _364
REMARK  145  A    between atoms: _364  and  _365
REMARK  146  A    between atoms: _365  and  _366
REMARK  147  A    between atoms: _366  and  _367
REMARK  148  A    between atoms: _376  and  _378
REMARK  149  A    between atoms: _378  and  _379
REMARK  150  A    between atoms: _378  and  _381
REMARK  151  A    between atoms: _381  and  _382
REMARK  152  A    between atoms: _384  and  _386
REMARK  153  A    between atoms: _386  and  _387
REMARK  154  A    between atoms: _389  and  _391
REMARK  155  A    between atoms: _391  and  _392
REMARK  156  A    between atoms: _391  and  _394
REMARK  157  A    between atoms: _394  and  _395
REMARK  158  A    between atoms: _398  and  _400
REMARK  159  A    between atoms: _400  and  _401
REMARK  160  A    between atoms: _404  and  _406
REMARK  161  A    between atoms: _406  and  _407
REMARK  162  A    between atoms: _406  and  _409
REMARK  163  A    between atoms: _409  and  _410
REMARK  164  A    between atoms: _413  and  _415
REMARK  165  A    between atoms: _415  and  _416
REMARK  166  A    between atoms: _415  and  _418
REMARK  167  A    between atoms: _420  and  _422
REMARK  168  A    between atoms: _422  and  _423
REMARK  169  A    between atoms: _422  and  _425
REMARK  170  A    between atoms: _425  and  _426
REMARK  171  A    between atoms: _426  and  _427
REMARK  172  A    between atoms: _427  and  _428
REMARK  173  A    between atoms: _437  and  _439
REMARK  174  A    between atoms: _439  and  _440
REMARK  175  A    between atoms: _443  and  _445
REMARK  176  A    between atoms: _445  and  _446
REMARK  177  A    between atoms: _445  and  _448
REMARK  178  A    between atoms: _448  and  _449
REMARK  179  A    between atoms: _449  and  _450
REMARK  180  A    between atoms: _455  and  _457
REMARK  181  A    between atoms: _457  and  _458
REMARK  182  A    between atoms: _457  and  _460
REMARK  183  A    between atoms: _460  and  _461
REMARK  184  A    between atoms: _464  and  _466
REMARK  185  A    between atoms: _466  and  _467
REMARK  186  A    between atoms: _466  and  _469
REMARK  187  A    between atoms: _469  and  _470
REMARK  188  A    between atoms: _470  and  _471
REMARK  189  A    between atoms: _471  and  _472
REMARK  190  A    between atoms: _481  and  _483
REMARK  191  A    between atoms: _483  and  _484
REMARK  192  A    between atoms: _486  and  _488
REMARK  193  A    between atoms: _488  and  _489
REMARK  194  A    between atoms: _488  and  _491
REMARK  195  A    between atoms: _491  and  _492
REMARK  196  A    between atoms: _495  and  _497
REMARK  197  A    between atoms: _497  and  _498
REMARK  198  A    between atoms: _500  and  _502
REMARK  199  A    between atoms: _502  and  _503
REMARK  200  A    between atoms: _505  and  _507
REMARK  201  A    between atoms: _507  and  _508
REMARK  202  A    between atoms: _507  and  _510
REMARK  203  A    between atoms: _510  and  _511
REMARK  204  A    between atoms: _516  and  _518
REMARK  205  A    between atoms: _518  and  _519
REMARK  206  A    between atoms: _521  and  _523
REMARK  207  A    between atoms: _523  and  _524
REMARK  208  A    between atoms: _523  and  _526
REMARK  209  A    between atoms: _526  and  _527
REMARK  210  A    between atoms: _529  and  _531
REMARK  211  A    between atoms: _531  and  _532
REMARK  212  A    between atoms: _531  and  _534
REMARK  213  A    between atoms: _534  and  _535
REMARK  214  A    between atoms: _537  and  _539
REMARK  215  A    between atoms: _539  and  _540
REMARK  216  A    between atoms: _542  and  _544
REMARK  217  A    between atoms: _544  and  _545
REMARK  218  A    between atoms: _547  and  _549
REMARK  219  A    between atoms: _549  and  _550
REMARK  220  A    between atoms: _549  and  _552
REMARK  221  A    between atoms: _552  and  _553
REMARK                            x       y       z     vdW  Elec       q    Type
REMARK                         _______ _______ _______ _____ _____    ______ ____
ROOT
ATOM      1  CA  VAL A   1       7.292  21.526  37.177  0.00  0.00    +0.133 C 
ENDROOT
BRANCH   1   2
ATOM      2  CB  VAL A   1       8.413  22.275  36.447  0.00  0.00    +0.023 C 
ATOM      3  CG2 VAL A   1       9.840  21.799  36.913  0.00  0.00    +0.002 C 
ATOM      4  CG1 VAL A   1       8.230  23.752  36.691  0.00  0.00    +0.002 C 
ENDBRANCH   1   2
BRANCH   1   5
ATOM      5  N   VAL A   1       7.203  21.765  38.628  0.00  0.00    -0.239 NA
ATOM      6  H   VAL A   1       7.888  21.325  39.275  0.00  0.00    +0.142 HD
ENDBRANCH   1   5
BRANCH   1   7
ATOM      7  C   VAL A   1       7.425  20.045  36.894  0.00  0.00    +0.224 C 
ATOM      8  O   VAL A   1       7.983  19.285  37.706  0.00  0.00    -0.287 OA
ENDBRANCH   1   7
TORSDOF 3
REMARK  Name = ../refined-set-2016/2py4/2py4_pocket.pdb
REMARK  221 active torsions:
REMARK  status: ('A' for Active; 'I' for Inactive)
REMARK    1  A    between atoms: _1  and  _3
REMARK    2  A    between atoms: _3  and  _4
REMARK    3  A    between atoms: _3  and  _6
REMARK    4  A    between atoms: _6  and  _7
REMARK    5  A    between atoms: _10  and  _12
REMARK    6  A    between atoms: _12  and  _13
REMARK    7  A    between atoms: _12  and  _15
REMARK    8  A    between atoms: _15  and  _16
REMARK    9  A    between atoms: _19  and  _21
REMARK   10  A    between atoms: _21  and  _22
REMARK   11  A    between atoms: _21  and  _24
REMARK   12  A    between atoms: _27  and  _29
REMARK   13  A    between atoms: _29  and  _30
REMARK   14  A    between atoms: _29  and  _32
REMARK   15  A    between atoms: _32  and  _33
REMARK   16  A    between atoms: _36  and  _38
REMARK   17  A    between atoms: _38  and  _39
REMARK   18  A    between atoms: _38  and  _41
REMARK   19  A    between atoms: _44  and  _46
REMARK   20  A    between atoms: _46  and  _47
REMARK   21  A    between atoms: _46  and  _49
REMARK   22  A    between atoms: _52  and  _54
REMARK   23  A    between atoms: _54  and  _55
REMARK   24  A    between atoms: _54  and  _57
REMARK   25  A    between atoms: _60  and  _62
REMARK   26  A    between atoms: _62  and  _63
REMARK   27  A    between atoms: _62  and  _65
REMARK   28  A    between atoms: _68  and  _70
REMARK   29  A    between atoms: _70  and  _71
REMARK   30  A    between atoms: _73  and  _75
REMARK   31  A    between atoms: _75  and  _76
REMARK   32  A    between atoms: _75  and  _78
REMARK   33  A    between atoms: _78  and  _79
REMARK   34  A    between atoms: _82  and  _84
REMARK   35  A    between atoms: _84  and  _85
REMARK   36  A    between atoms: _84  and  _87
REMARK   37  A    between atoms: _90  and  _92
REMARK   38  A    between atoms: _92  and  _93
REMARK   39  A    between atoms: _92  and  _95
REMARK   40  A    between atoms: _95  and  _96
REMARK   41  A    between atoms: _101  and  _103
REMARK   42  A    between atoms: _103  and  _104
REMARK   43  A    between atoms: _103  and  _106
REMARK   44  A    between atoms: _106  and  _107
REMARK   45  A    between atoms: _110  and  _112
REMARK   46  A    between atoms: _112  and  _113
REMARK   47  A    between atoms: _112  and  _115
REMARK   48  A    between atoms: _118  and  _120
REMARK   49  A    between atoms: _120  and  _121
REMARK   50  A    between atoms: _120  and  _123
REMARK   51  A    between atoms: _123  and  _124
REMARK   52  A    between atoms: _129  and  _131
REMARK   53  A    between atoms: _131  and  _132
REMARK   54  A    between atoms: _131  and  _134
REMARK   55  A    between atoms: _134  and  _135
REMARK   56  A    between atoms: _138  and  _139
REMARK   57  A    between atoms: _144  and  _146
REMARK   58  A    between atoms: _146  and  _147
REMARK   59  A    between atoms: _149  and  _151
REMARK   60  A    between atoms: _151  and  _152
REMARK   61  A    between atoms: _151  and  _154
REMARK   62  A    between atoms: _154  and  _155
REMARK   63  A    between atoms: _158  and  _160
REMARK   64  A    between atoms: _160  and  _161
REMARK   65  A    between atoms: _160  and  _163
REMARK   66  A    between atoms: _163  and  _164
REMARK   67  A    between atoms: _167  and  _169
REMARK   68  A    between atoms: _169  and  _170
REMARK   69  A    between atoms: _169  and  _172
REMARK   70  A    between atoms: _172  and  _173
REMARK   71  A    between atoms: _176  and  _178
REMARK   72  A    between atoms: _178  and  _179
REMARK   73  A    between atoms: _182  and  _184
REMARK   74  A    between atoms: _184  and  _185
REMARK   75  A    between atoms: _187  and  _189
REMARK   76  A    between atoms: _189  and  _190
REMARK   77  A    between atoms: _189  and  _192
REMARK   78  A    between atoms: _192  and  _193
REMARK   79  A    between atoms: _198  and  _199
REMARK   80  A    between atoms: _201  and  _203
REMARK   81  A    between atoms: _203  and  _204
REMARK   82  A    between atoms: _203  and  _206
REMARK   83  A    between atoms: _206  and  _207
REMARK   84  A    between atoms: _207  and  _208
REMARK   85  A    between atoms: _208  and  _209
REMARK   86  A    between atoms: _218  and  _220
REMARK   87  A    between atoms: _220  and  _221
REMARK   88  A    between atoms: _223  and  _225
REMARK   89  A    between atoms: _225  and  _226
REMARK   90  A    between atoms: _225  and  _228
REMARK   91  A    between atoms: _228  and  _229
REMARK   92  A    between atoms: _229  and  _230
REMARK   93  A    between atoms: _233  and  _235
REMARK   94  A    between atoms: _235  and  _236
REMARK   95  A    between atoms: _235  and  _238
REMARK   96  A    between atoms: _238  and  _239
REMARK   97  A    between atoms: _242  and  _244
REMARK   98  A    between atoms: _244  and  _245
REMARK   99  A    between atoms: _244  and  _247
REMARK  100  A    between atoms: _247  and  _248
REMARK  101  A    between atoms: _248  and  _249
REMARK  102  A    between atoms: _249  and  _250
REMARK  103  A    between atoms: _250  and  _251
REMARK  104  A    between atoms: _255  and  _257
REMARK  105  A    between atoms: _257  and  _258
REMARK  106  A    between atoms: _257  and  _260
REMARK  107  A    between atoms: _263  and  _265
REMARK  108  A    between atoms: _265  and  _266
REMARK  109  A    between atoms: _269  and  _271
REMARK  110  A    between atoms: _271  and  _272
REMARK  111  A    between atoms: _271  and  _274
REMARK  112  A    between atoms: _274  and  _275
REMARK  113  A    between atoms: _278  and  _280
REMARK  114  A    between atoms: _280  and  _281
REMARK  115  A    between atoms: _280  and  _283
REMARK  116  A    between atoms: _283  and  _284
REMARK  117  A    between atoms: _284  and  _285
REMARK  118  A    between atoms: _285  and  _286
REMARK  119  A    between atoms: _295  and  _297
REMARK  120  A    between atoms: _297  and  _298
REMARK  121  A    between atoms: _301  and  _303
REMARK  122  A    between atoms: _303  and  _304
REMARK  123  A    between atoms: _303  and  _306
REMARK  124  A    between atoms: _306  and  _307
REMARK  125  A    between atoms: _312  and  _314
REMARK  126  A    between atoms: _314  and  _315
REMARK  127  A    between atoms: _314  and  _317
REMARK  128  A    between atoms: _317  and  _318
REMARK  129  A    between atoms: _321  and  _323
REMARK  130  A    between atoms: _323  and  _324
REMARK  131  A    between atoms: _327  and  _329
REMARK  132  A    between atoms: _329  and  _330
REMARK  133  A    between atoms: _332  and  _334
REMARK  134  A    between atoms: _334  and  _335
REMARK  135  A    between atoms: _334  and  _337
REMARK  136  A    between atoms: _337  and  _338
REMARK  137  A    between atoms: _341  and  _343
REMARK  138  A    between atoms: _343  and  _344
REMARK  139  A    between atoms: _343  and  _346
REMARK  140  A    between atoms: _346  and  _347
REMARK  141  A    between atoms: _353  and  _354
REMARK  142  A    between atoms: _359  and  _361
REMARK  143  A    between atoms: _361  and  _362
REMARK  144  A    between atoms: _361  and  _364
REMARK  145  A    between atoms: _364  and  _365
REMARK  146  A    between atoms: _365  and  _366
REMARK  147  A    between atoms: _366  and  _367
REMARK  148  A    between atoms: _376  and  _378
REMARK  149  A    between atoms: _378  and  _379
REMARK  150  A    between atoms: _378  and  _381
REMARK  151  A    between atoms: _381  and  _382
REMARK  152  A    between atoms: _384  and  _386
REMARK  153  A    between atoms: _386  and  _387
REMARK  154  A    between atoms: _389  and  _391
REMARK  155  A    between atoms: _391  and  _392
REMARK  156  A    between atoms: _391  and  _394
REMARK  157  A    between atoms: _394  and  _395
REMARK  158  A    between atoms: _398  and  _400
REMARK  159  A    between atoms: _400  and  _401
REMARK  160  A    between atoms: _404  and  _406
REMARK  161  A    between atoms: _406  and  _407
REMARK  162  A    between atoms: _406  and  _409
REMARK  163  A    between atoms: _409  and  _410
REMARK  164  A    between atoms: _413  and  _415
REMARK  165  A    between atoms: _415  and  _416
REMARK  166  A    between atoms: _415  and  _418
REMARK  167  A    between atoms: _420  and  _422
REMARK  168  A    between atoms: _422  and  _423
REMARK  169  A    between atoms: _422  and  _425
REMARK  170  A    between atoms: _425  and  _426
REMARK  171  A    between atoms: _426  and  _427
REMARK  172  A    between atoms: _427  and  _428
REMARK  173  A    between atoms: _437  and  _439
REMARK  174  A    between atoms: _439  and  _440
REMARK  175  A    between atoms: _443  and  _445
REMARK  176  A    between atoms: _445  and  _446
REMARK  177  A    between atoms: _445  and  _448
REMARK  178  A    between atoms: _448  and  _449
REMARK  179  A    between atoms: _449  and  _450
REMARK  180  A    between atoms: _455  and  _457
REMARK  181  A    between atoms: _457  and  _458
REMARK  182  A    between atoms: _457  and  _460
REMARK  183  A    between atoms: _460  and  _461
REMARK  184  A    between atoms: _464  and  _466
REMARK  185  A    between atoms: _466  and  _467
REMARK  186  A    between atoms: _466  and  _469
REMARK  187  A    between atoms: _469  and  _470
REMARK  188  A    between atoms: _470  and  _471
REMARK  189  A    between atoms: _471  and  _472
REMARK  190  A    between atoms: _481  and  _483
REMARK  191  A    between atoms: _483  and  _484
REMARK  192  A    between atoms: _486  and  _488
REMARK  193  A    between atoms: _488  and  _489
REMARK  194  A    between atoms: _488  and  _491
REMARK  195  A    between atoms: _491  and  _492
REMARK  196  A    between atoms: _495  and  _497
REMARK  197  A    between atoms: _497  and  _498
REMARK  198  A    between atoms: _500  and  _502
REMARK  199  A    between atoms: _502  and  _503
REMARK  200  A    between atoms: _505  and  _507
REMARK  201  A    between atoms: _507  and  _508
REMARK  202  A    between atoms: _507  and  _510
REMARK  203  A    between atoms: _510  and  _511
REMARK  204  A    between atoms: _516  and  _518
REMARK  205  A    between atoms: _518  and  _519
REMARK  206  A    between atoms: _521  and  _523
REMARK  207  A    between atoms: _523  and  _524
REMARK  208  A    between atoms: _523  and  _526
REMARK  209  A    between atoms: _526  and  _527
REMARK  210  A    between atoms: _529  and  _531
REMARK  211  A    between atoms: _531  and  _532
REMARK  212  A    between atoms: _531  and  _534
REMARK  213  A    between atoms: _534  and  _535
REMARK  214  A    between atoms: _537  and  _539
REMARK  215  A    between atoms: _539  and  _540
REMARK  216  A    between atoms: _542  and  _544
REMARK  217  A    between atoms: _544  and  _545
REMARK  218  A    between atoms: _547  and  _549
REMARK  219  A    between atoms: _549  and  _550
REMARK  220  A    between atoms: _549  and  _552
REMARK  221  A    between atoms: _552  and  _553
REMARK                            x       y       z     vdW  Elec       q    Type
REMARK                         _______ _______ _______ _____ _____    ______ ____
ROOT
ATOM      1  CA  VAL A   1       9.310  18.112  31.948  0.00  0.00    +0.133 C 
ENDROOT
BRANCH   1   2
ATOM      2  CB  VAL A   1      10.741  18.656  32.032  0.00  0.00    +0.023 C 
ATOM      3  CG2 VAL A   1      11.691  17.638  32.772  0.00  0.00    +0.002 C 
ATOM      4  CG1 VAL A   1      10.744  20.005  32.770  0.00  0.00    +0.002 C 
ENDBRANCH   1   2
BRANCH   1   5
ATOM      5  N   VAL A   1       8.751  17.892  33.275  0.00  0.00    -0.239 NA
ATOM      6  H   VAL A   1       9.095  17.102  33.857  0.00  0.00    +0.142 HD
ENDBRANCH   1   5
BRANCH   1   7
ATOM      7  C   VAL A   1       9.401  16.832  31.148  0.00  0.00    +0.224 C 
ATOM      8  O   VAL A   1       9.306  15.744  31.745  0.00  0.00    -0.287 OA
ENDBRANCH   1   7
TORSDOF 3
REMARK  Name = ../refined-set-2016/2py4/2py4_pocket.pdb
REMARK  221 active torsions:
REMARK  status: ('A' for Active; 'I' for Inactive)
REMARK    1  A    between atoms: _1  and  _3
REMARK    2  A    between atoms: _3  and  _4
REMARK    3  A    between atoms: _3  and  _6
REMARK    4  A    between atoms: _6  and  _7
REMARK    5  A    between atoms: _10  and  _12
REMARK    6  A    between atoms: _12  and  _13
REMARK    7  A    between atoms: _12  and  _15
REMARK    8  A    between atoms: _15  and  _16
REMARK    9  A    between atoms: _19  and  _21
REMARK   10  A    between atoms: _21  and  _22
REMARK   11  A    between atoms: _21  and  _24
REMARK   12  A    between atoms: _27  and  _29
REMARK   13  A    between atoms: _29  and  _30
REMARK   14  A    between atoms: _29  and  _32
REMARK   15  A    between atoms: _32  and  _33
REMARK   16  A    between atoms: _36  and  _38
REMARK   17  A    between atoms: _38  and  _39
REMARK   18  A    between atoms: _38  and  _41
REMARK   19  A    between atoms: _44  and  _46
REMARK   20  A    between atoms: _46  and  _47
REMARK   21  A    between atoms: _46  and  _49
REMARK   22  A    between atoms: _52  and  _54
REMARK   23  A    between atoms: _54  and  _55
REMARK   24  A    between atoms: _54  and  _57
REMARK   25  A    between atoms: _60  and  _62
REMARK   26  A    between atoms: _62  and  _63
REMARK   27  A    between atoms: _62  and  _65
REMARK   28  A    between atoms: _68  and  _70
REMARK   29  A    between atoms: _70  and  _71
REMARK   30  A    between atoms: _73  and  _75
REMARK   31  A    between atoms: _75  and  _76
REMARK   32  A    between atoms: _75  and  _78
REMARK   33  A    between atoms: _78  and  _79
REMARK   34  A    between atoms: _82  and  _84
REMARK   35  A    between atoms: _84  and  _85
REMARK   36  A    between atoms: _84  and  _87
REMARK   37  A    between atoms: _90  and  _92
REMARK   38  A    between atoms: _92  and  _93
REMARK   39  A    between atoms: _92  and  _95
REMARK   40  A    between atoms: _95  and  _96
REMARK   41  A    between atoms: _101  and  _103
REMARK   42  A    between atoms: _103  and  _104
REMARK   43  A    between atoms: _103  and  _106
REMARK   44  A    between atoms: _106  and  _107
REMARK   45  A    between atoms: _110  and  _112
REMARK   46  A    between atoms: _112  and  _113
REMARK   47  A    between atoms: _112  and  _115
REMARK   48  A    between atoms: _118  and  _120
REMARK   49  A    between atoms: _120  and  _121
REMARK   50  A    between atoms: _120  and  _123
REMARK   51  A    between atoms: _123  and  _124
REMARK   52  A    between atoms: _129  and  _131
REMARK   53  A    between atoms: _131  and  _132
REMARK   54  A    between atoms: _131  and  _134
REMARK   55  A    between atoms: _134  and  _135
REMARK   56  A    between atoms: _138  and  _139
REMARK   57  A    between atoms: _144  and  _146
REMARK   58  A    between atoms: _146  and  _147
REMARK   59  A    between atoms: _149  and  _151
REMARK   60  A    between atoms: _151  and  _152
REMARK   61  A    between atoms: _151  and  _154
REMARK   62  A    between atoms: _154  and  _155
REMARK   63  A    between atoms: _158  and  _160
REMARK   64  A    between atoms: _160  and  _161
REMARK   65  A    between atoms: _160  and  _163
REMARK   66  A    between atoms: _163  and  _164
REMARK   67  A    between atoms: _167  and  _169
REMARK   68  A    between atoms: _169  and  _170
REMARK   69  A    between atoms: _169  and  _172
REMARK   70  A    between atoms: _172  and  _173
REMARK   71  A    between atoms: _176  and  _178
REMARK   72  A    between atoms: _178  and  _179
REMARK   73  A    between atoms: _182  and  _184
REMARK   74  A    between atoms: _184  and  _185
REMARK   75  A    between atoms: _187  and  _189
REMARK   76  A    between atoms: _189  and  _190
REMARK   77  A    between atoms: _189  and  _192
REMARK   78  A    between atoms: _192  and  _193
REMARK   79  A    between atoms: _198  and  _199
REMARK   80  A    between atoms: _201  and  _203
REMARK   81  A    between atoms: _203  and  _204
REMARK   82  A    between atoms: _203  and  _206
REMARK   83  A    between atoms: _206  and  _207
REMARK   84  A    between atoms: _207  and  _208
REMARK   85  A    between atoms: _208  and  _209
REMARK   86  A    between atoms: _218  and  _220
REMARK   87  A    between atoms: _220  and  _221
REMARK   88  A    between atoms: _223  and  _225
REMARK   89  A    between atoms: _225  and  _226
REMARK   90  A    between atoms: _225  and  _228
REMARK   91  A    between atoms: _228  and  _229
REMARK   92  A    between atoms: _229  and  _230
REMARK   93  A    between atoms: _233  and  _235
REMARK   94  A    between atoms: _235  and  _236
REMARK   95  A    between atoms: _235  and  _238
REMARK   96  A    between atoms: _238  and  _239
REMARK   97  A    between atoms: _242  and  _244
REMARK   98  A    between atoms: _244  and  _245
REMARK   99  A    between atoms: _244  and  _247
REMARK  100  A    between atoms: _247  and  _248
REMARK  101  A    between atoms: _248  and  _249
REMARK  102  A    between atoms: _249  and  _250
REMARK  103  A    between atoms: _250  and  _251
REMARK  104  A    between atoms: _255  and  _257
REMARK  105  A    between atoms: _257  and  _258
REMARK  106  A    between atoms: _257  and  _260
REMARK  107  A    between atoms: _263  and  _265
REMARK  108  A    between atoms: _265  and  _266
REMARK  109  A    between atoms: _269  and  _271
REMARK  110  A    between atoms: _271  and  _272
REMARK  111  A    between atoms: _271  and  _274
REMARK  112  A    between atoms: _274  and  _275
REMARK  113  A    between atoms: _278  and  _280
REMARK  114  A    between atoms: _280  and  _281
REMARK  115  A    between atoms: _280  and  _283
REMARK  116  A    between atoms: _283  and  _284
REMARK  117  A    between atoms: _284  and  _285
REMARK  118  A    between atoms: _285  and  _286
REMARK  119  A    between atoms: _295  and  _297
REMARK  120  A    between atoms: _297  and  _298
REMARK  121  A    between atoms: _301  and  _303
REMARK  122  A    between atoms: _303  and  _304
REMARK  123  A    between atoms: _303  and  _306
REMARK  124  A    between atoms: _306  and  _307
REMARK  125  A    between atoms: _312  and  _314
REMARK  126  A    between atoms: _314  and  _315
REMARK  127  A    between atoms: _314  and  _317
REMARK  128  A    between atoms: _317  and  _318
REMARK  129  A    between atoms: _321  and  _323
REMARK  130  A    between atoms: _323  and  _324
REMARK  131  A    between atoms: _327  and  _329
REMARK  132  A    between atoms: _329  and  _330
REMARK  133  A    between atoms: _332  and  _334
REMARK  134  A    between atoms: _334  and  _335
REMARK  135  A    between atoms: _334  and  _337
REMARK  136  A    between atoms: _337  and  _338
REMARK  137  A    between atoms: _341  and  _343
REMARK  138  A    between atoms: _343  and  _344
REMARK  139  A    between atoms: _343  and  _346
REMARK  140  A    between atoms: _346  and  _347
REMARK  141  A    between atoms: _353  and  _354
REMARK  142  A    between atoms: _359  and  _361
REMARK  143  A    between atoms: _361  and  _362
REMARK  144  A    between atoms: _361  and  _364
REMARK  145  A    between atoms: _364  and  _365
REMARK  146  A    between atoms: _365  and  _366
REMARK  147  A    between atoms: _366  and  _367
REMARK  148  A    between atoms: _376  and  _378
REMARK  149  A    between atoms: _378  and  _379
REMARK  150  A    between atoms: _378  and  _381
REMARK  151  A    between atoms: _381  and  _382
REMARK  152  A    between atoms: _384  and  _386
REMARK  153  A    between atoms: _386  and  _387
REMARK  154  A    between atoms: _389  and  _391
REMARK  155  A    between atoms: _391  and  _392
REMARK  156  A    between atoms: _391  and  _394
REMARK  157  A    between atoms: _394  and  _395
REMARK  158  A    between atoms: _398  and  _400
REMARK  159  A    between atoms: _400  and  _401
REMARK  160  A    between atoms: _404  and  _406
REMARK  161  A    between atoms: _406  and  _407
REMARK  162  A    between atoms: _406  and  _409
REMARK  163  A    between atoms: _409  and  _410
REMARK  164  A    between atoms: _413  and  _415
REMARK  165  A    between atoms: _415  and  _416
REMARK  166  A    between atoms: _415  and  _418
REMARK  167  A    between atoms: _420  and  _422
REMARK  168  A    between atoms: _422  and  _423
REMARK  169  A    between atoms: _422  and  _425
REMARK  170  A    between atoms: _425  and  _426
REMARK  171  A    between atoms: _426  and  _427
REMARK  172  A    between atoms: _427  and  _428
REMARK  173  A    between atoms: _437  and  _439
REMARK  174  A    between atoms: _439  and  _440
REMARK  175  A    between atoms: _443  and  _445
REMARK  176  A    between atoms: _445  and  _446
REMARK  177  A    between atoms: _445  and  _448
REMARK  178  A    between atoms: _448  and  _449
REMARK  179  A    between atoms: _449  and  _450
REMARK  180  A    between atoms: _455  and  _457
REMARK  181  A    between atoms: _457  and  _458
REMARK  182  A    between atoms: _457  and  _460
REMARK  183  A    between atoms: _460  and  _461
REMARK  184  A    between atoms: _464  and  _466
REMARK  185  A    between atoms: _466  and  _467
REMARK  186  A    between atoms: _466  and  _469
REMARK  187  A    between atoms: _469  and  _470
REMARK  188  A    between atoms: _470  and  _471
REMARK  189  A    between atoms: _471  and  _472
REMARK  190  A    between atoms: _481  and  _483
REMARK  191  A    between atoms: _483  and  _484
REMARK  192  A    between atoms: _486  and  _488
REMARK  193  A    between atoms: _488  and  _489
REMARK  194  A    between atoms: _488  and  _491
REMARK  195  A    between atoms: _491  and  _492
REMARK  196  A    between atoms: _495  and  _497
REMARK  197  A    between atoms: _497  and  _498
REMARK  198  A    between atoms: _500  and  _502
REMARK  199  A    between atoms: _502  and  _503
REMARK  200  A    between atoms: _505  and  _507
REMARK  201  A    between atoms: _507  and  _508
REMARK  202  A    between atoms: _507  and  _510
REMARK  203  A    between atoms: _510  and  _511
REMARK  204  A    between atoms: _516  and  _518
REMARK  205  A    between atoms: _518  and  _519
REMARK  206  A    between atoms: _521  and  _523
REMARK  207  A    between atoms: _523  and  _524
REMARK  208  A    between atoms: _523  and  _526
REMARK  209  A    between atoms: _526  and  _527
REMARK  210  A    between atoms: _529  and  _531
REMARK  211  A    between atoms: _531  and  _532
REMARK  212  A    between atoms: _531  and  _534
REMARK  213  A    between atoms: _534  and  _535
REMARK  214  A    between atoms: _537  and  _539
REMARK  215  A    between atoms: _539  and  _540
REMARK  216  A    between atoms: _542  and  _544
REMARK  217  A    between atoms: _544  and  _545
REMARK  218  A    between atoms: _547  and  _549
REMARK  219  A    between atoms: _549  and  _550
REMARK  220  A    between atoms: _549  and  _552
REMARK  221  A    between atoms: _552  and  _553
REMARK                            x       y       z     vdW  Elec       q    Type
REMARK                         _______ _______ _______ _____ _____    ______ ____
ROOT
ATOM      1  CA  VAL A   1      13.530  15.356  28.550  0.00  0.00    +0.133 C 
ENDROOT
BRANCH   1   2
ATOM      2  CB  VAL A   1      14.516  14.753  29.596  0.00  0.00    +0.023 C 
ATOM      3  CG2 VAL A   1      14.610  15.697  30.765  0.00  0.00    +0.002 C 
ATOM      4  CG1 VAL A   1      15.879  14.487  28.967  0.00  0.00    +0.002 C 
ENDBRANCH   1   2
BRANCH   1   5
ATOM      5  N   VAL A   1      12.172  15.368  29.117  0.00  0.00    -0.239 NA
ATOM      6  H   VAL A   1      12.003  14.995  30.073  0.00  0.00    +0.142 HD
ENDBRANCH   1   5
BRANCH   1   7
ATOM      7  C   VAL A   1      13.490  14.510  27.276  0.00  0.00    +0.224 C 
ATOM      8  O   VAL A   1      12.962  13.386  27.336  0.00  0.00    -0.287 OA
ENDBRANCH   1   7
TORSDOF 3
REMARK  Name = ../refined-set-2016/2py4/2py4_pocket.pdb
REMARK  221 active torsions:
REMARK  status: ('A' for Active; 'I' for Inactive)
REMARK    1  A    between atoms: _1  and  _3
REMARK    2  A    between atoms: _3  and  _4
REMARK    3  A    between atoms: _3  and  _6
REMARK    4  A    between atoms: _6  and  _7
REMARK    5  A    between atoms: _10  and  _12
REMARK    6  A    between atoms: _12  and  _13
REMARK    7  A    between atoms: _12  and  _15
REMARK    8  A    between atoms: _15  and  _16
REMARK    9  A    between atoms: _19  and  _21
REMARK   10  A    between atoms: _21  and  _22
REMARK   11  A    between atoms: _21  and  _24
REMARK   12  A    between atoms: _27  and  _29
REMARK   13  A    between atoms: _29  and  _30
REMARK   14  A    between atoms: _29  and  _32
REMARK   15  A    between atoms: _32  and  _33
REMARK   16  A    between atoms: _36  and  _38
REMARK   17  A    between atoms: _38  and  _39
REMARK   18  A    between atoms: _38  and  _41
REMARK   19  A    between atoms: _44  and  _46
REMARK   20  A    between atoms: _46  and  _47
REMARK   21  A    between atoms: _46  and  _49
REMARK   22  A    between atoms: _52  and  _54
REMARK   23  A    between atoms: _54  and  _55
REMARK   24  A    between atoms: _54  and  _57
REMARK   25  A    between atoms: _60  and  _62
REMARK   26  A    between atoms: _62  and  _63
REMARK   27  A    between atoms: _62  and  _65
REMARK   28  A    between atoms: _68  and  _70
REMARK   29  A    between atoms: _70  and  _71
REMARK   30  A    between atoms: _73  and  _75
REMARK   31  A    between atoms: _75  and  _76
REMARK   32  A    between atoms: _75  and  _78
REMARK   33  A    between atoms: _78  and  _79
REMARK   34  A    between atoms: _82  and  _84
REMARK   35  A    between atoms: _84  and  _85
REMARK   36  A    between atoms: _84  and  _87
REMARK   37  A    between atoms: _90  and  _92
REMARK   38  A    between atoms: _92  and  _93
REMARK   39  A    between atoms: _92  and  _95
REMARK   40  A    between atoms: _95  and  _96
REMARK   41  A    between atoms: _101  and  _103
REMARK   42  A    between atoms: _103  and  _104
REMARK   43  A    between atoms: _103  and  _106
REMARK   44  A    between atoms: _106  and  _107
REMARK   45  A    between atoms: _110  and  _112
REMARK   46  A    between atoms: _112  and  _113
REMARK   47  A    between atoms: _112  and  _115
REMARK   48  A    between atoms: _118  and  _120
REMARK   49  A    between atoms: _120  and  _121
REMARK   50  A    between atoms: _120  and  _123
REMARK   51  A    between atoms: _123  and  _124
REMARK   52  A    between atoms: _129  and  _131
REMARK   53  A    between atoms: _131  and  _132
REMARK   54  A    between atoms: _131  and  _134
REMARK   55  A    between atoms: _134  and  _135
REMARK   56  A    between atoms: _138  and  _139
REMARK   57  A    between atoms: _144  and  _146
REMARK   58  A    between atoms: _146  and  _147
REMARK   59  A    between atoms: _149  and  _151
REMARK   60  A    between atoms: _151  and  _152
REMARK   61  A    between atoms: _151  and  _154
REMARK   62  A    between atoms: _154  and  _155
REMARK   63  A    between atoms: _158  and  _160
REMARK   64  A    between atoms: _160  and  _161
REMARK   65  A    between atoms: _160  and  _163
REMARK   66  A    between atoms: _163  and  _164
REMARK   67  A    between atoms: _167  and  _169
REMARK   68  A    between atoms: _169  and  _170
REMARK   69  A    between atoms: _169  and  _172
REMARK   70  A    between atoms: _172  and  _173
REMARK   71  A    between atoms: _176  and  _178
REMARK   72  A    between atoms: _178  and  _179
REMARK   73  A    between atoms: _182  and  _184
REMARK   74  A    between atoms: _184  and  _185
REMARK   75  A    between atoms: _187  and  _189
REMARK   76  A    between atoms: _189  and  _190
REMARK   77  A    between atoms: _189  and  _192
REMARK   78  A    between atoms: _192  and  _193
REMARK   79  A    between atoms: _198  and  _199
REMARK   80  A    between atoms: _201  and  _203
REMARK   81  A    between atoms: _203  and  _204
REMARK   82  A    between atoms: _203  and  _206
REMARK   83  A    between atoms: _206  and  _207
REMARK   84  A    between atoms: _207  and  _208
REMARK   85  A    between atoms: _208  and  _209
REMARK   86  A    between atoms: _218  and  _220
REMARK   87  A    between atoms: _220  and  _221
REMARK   88  A    between atoms: _223  and  _225
REMARK   89  A    between atoms: _225  and  _226
REMARK   90  A    between atoms: _225  and  _228
REMARK   91  A    between atoms: _228  and  _229
REMARK   92  A    between atoms: _229  and  _230
REMARK   93  A    between atoms: _233  and  _235
REMARK   94  A    between atoms: _235  and  _236
REMARK   95  A    between atoms: _235  and  _238
REMARK   96  A    between atoms: _238  and  _239
REMARK   97  A    between atoms: _242  and  _244
REMARK   98  A    between atoms: _244  and  _245
REMARK   99  A    between atoms: _244  and  _247
REMARK  100  A    between atoms: _247  and  _248
REMARK  101  A    between atoms: _248  and  _249
REMARK  102  A    between atoms: _249  and  _250
REMARK  103  A    between atoms: _250  and  _251
REMARK  104  A    between atoms: _255  and  _257
REMARK  105  A    between atoms: _257  and  _258
REMARK  106  A    between atoms: _257  and  _260
REMARK  107  A    between atoms: _263  and  _265
REMARK  108  A    between atoms: _265  and  _266
REMARK  109  A    between atoms: _269  and  _271
REMARK  110  A    between atoms: _271  and  _272
REMARK  111  A    between atoms: _271  and  _274
REMARK  112  A    between atoms: _274  and  _275
REMARK  113  A    between atoms: _278  and  _280
REMARK  114  A    between atoms: _280  and  _281
REMARK  115  A    between atoms: _280  and  _283
REMARK  116  A    between atoms: _283  and  _284
REMARK  117  A    between atoms: _284  and  _285
REMARK  118  A    between atoms: _285  and  _286
REMARK  119  A    between atoms: _295  and  _297
REMARK  120  A    between atoms: _297  and  _298
REMARK  121  A    between atoms: _301  and  _303
REMARK  122  A    between atoms: _303  and  _304
REMARK  123  A    between atoms: _303  and  _306
REMARK  124  A    between atoms: _306  and  _307
REMARK  125  A    between atoms: _312  and  _314
REMARK  126  A    between atoms: _314  and  _315
REMARK  127  A    between atoms: _314  and  _317
REMARK  128  A    between atoms: _317  and  _318
REMARK  129  A    between atoms: _321  and  _323
REMARK  130  A    between atoms: _323  and  _324
REMARK  131  A    between atoms: _327  and  _329
REMARK  132  A    between atoms: _329  and  _330
REMARK  133  A    between atoms: _332  and  _334
REMARK  134  A    between atoms: _334  and  _335
REMARK  135  A    between atoms: _334  and  _337
REMARK  136  A    between atoms: _337  and  _338
REMARK  137  A    between atoms: _341  and  _343
REMARK  138  A    between atoms: _343  and  _344
REMARK  139  A    between atoms: _343  and  _346
REMARK  140  A    between atoms: _346  and  _347
REMARK  141  A    between atoms: _353  and  _354
REMARK  142  A    between atoms: _359  and  _361
REMARK  143  A    between atoms: _361  and  _362
REMARK  144  A    between atoms: _361  and  _364
REMARK  145  A    between atoms: _364  and  _365
REMARK  146  A    between atoms: _365  and  _366
REMARK  147  A    between atoms: _366  and  _367
REMARK  148  A    between atoms: _376  and  _378
REMARK  149  A    between atoms: _378  and  _379
REMARK  150  A    between atoms: _378  and  _381
REMARK  151  A    between atoms: _381  and  _382
REMARK  152  A    between atoms: _384  and  _386
REMARK  153  A    between atoms: _386  and  _387
REMARK  154  A    between atoms: _389  and  _391
REMARK  155  A    between atoms: _391  and  _392
REMARK  156  A    between atoms: _391  and  _394
REMARK  157  A    between atoms: _394  and  _395
REMARK  158  A    between atoms: _398  and  _400
REMARK  159  A    between atoms: _400  and  _401
REMARK  160  A    between atoms: _404  and  _406
REMARK  161  A    between atoms: _406  and  _407
REMARK  162  A    between atoms: _406  and  _409
REMARK  163  A    between atoms: _409  and  _410
REMARK  164  A    between atoms: _413  and  _415
REMARK  165  A    between atoms: _415  and  _416
REMARK  166  A    between atoms: _415  and  _418
REMARK  167  A    between atoms: _420  and  _422
REMARK  168  A    between atoms: _422  and  _423
REMARK  169  A    between atoms: _422  and  _425
REMARK  170  A    between atoms: _425  and  _426
REMARK  171  A    between atoms: _426  and  _427
REMARK  172  A    between atoms: _427  and  _428
REMARK  173  A    between atoms: _437  and  _439
REMARK  174  A    between atoms: _439  and  _440
REMARK  175  A    between atoms: _443  and  _445
REMARK  176  A    between atoms: _445  and  _446
REMARK  177  A    between atoms: _445  and  _448
REMARK  178  A    between atoms: _448  and  _449
REMARK  179  A    between atoms: _449  and  _450
REMARK  180  A    between atoms: _455  and  _457
REMARK  181  A    between atoms: _457  and  _458
REMARK  182  A    between atoms: _457  and  _460
REMARK  183  A    between atoms: _460  and  _461
REMARK  184  A    between atoms: _464  and  _466
REMARK  185  A    between atoms: _466  and  _467
REMARK  186  A    between atoms: _466  and  _469
REMARK  187  A    between atoms: _469  and  _470
REMARK  188  A    between atoms: _470  and  _471
REMARK  189  A    between atoms: _471  and  _472
REMARK  190  A    between atoms: _481  and  _483
REMARK  191  A    between atoms: _483  and  _484
REMARK  192  A    between atoms: _486  and  _488
REMARK  193  A    between atoms: _488  and  _489
REMARK  194  A    between atoms: _488  and  _491
REMARK  195  A    between atoms: _491  and  _492
REMARK  196  A    between atoms: _495  and  _497
REMARK  197  A    between atoms: _497  and  _498
REMARK  198  A    between atoms: _500  and  _502
REMARK  199  A    between atoms: _502  and  _503
REMARK  200  A    between atoms: _505  and  _507
REMARK  201  A    between atoms: _507  and  _508
REMARK  202  A    between atoms: _507  and  _510
REMARK  203  A    between atoms: _510  and  _511
REMARK  204  A    between atoms: _516  and  _518
REMARK  205  A    between atoms: _518  and  _519
REMARK  206  A    between atoms: _521  and  _523
REMARK  207  A    between atoms: _523  and  _524
REMARK  208  A    between atoms: _523  and  _526
REMARK  209  A    between atoms: _526  and  _527
REMARK  210  A    between atoms: _529  and  _531
REMARK  211  A    between atoms: _531  and  _532
REMARK  212  A    between atoms: _531  and  _534
REMARK  213  A    between atoms: _534  and  _535
REMARK  214  A    between atoms: _537  and  _539
REMARK  215  A    between atoms: _539  and  _540
REMARK  216  A    between atoms: _542  and  _544
REMARK  217  A    between atoms: _544  and  _545
REMARK  218  A    between atoms: _547  and  _549
REMARK  219  A    between atoms: _549  and  _550
REMARK  220  A    between atoms: _549  and  _552
REMARK  221  A    between atoms: _552  and  _553
REMARK                            x       y       z     vdW  Elec       q    Type
REMARK                         _______ _______ _______ _____ _____    ______ ____
ROOT
ATOM      1  C   LEU A   3      20.141  18.146  36.490  0.00  0.00    +0.241 C 
ATOM      2  N   VAL A   4      19.880  17.795  37.768  0.00  0.00    -0.297 N 
ATOM      3  H   VAL A   4      19.919  16.792  38.041  0.00  0.00    +0.150 HD
ATOM      4  O   LEU A   3      20.150  19.333  36.084  0.00  0.00    -0.273 OA
ENDROOT
BRANCH   2   5
ATOM      5  CA  VAL A   4      19.545  18.795  38.768  0.00  0.00    +0.149 C 
BRANCH   5   6
ATOM      6  C   VAL A   4      20.813  19.034  39.573  0.00  0.00    +0.241 C 
ATOM      7  O   VAL A   4      21.306  18.144  40.237  0.00  0.00    -0.273 OA
ATOM      8  N   HIS A   5      21.287  20.267  39.507  0.00  0.00    -0.298 N 
ATOM      9  H   HIS A   5      20.761  20.985  38.970  0.00  0.00    +0.150 HD
BRANCH   8  10
ATOM     10  CA  HIS A   5      22.544  20.647  40.177  0.00  0.00    +0.143 C 
BRANCH  10  11
ATOM     11  C   HIS A   5      22.257  21.716  41.248  0.00  0.00    +0.227 C 
ATOM     12  O   HIS A   5      21.346  22.506  41.130  0.00  0.00    -0.286 OA
ENDBRANCH  10  11
BRANCH  10  13
ATOM     13  CB  HIS A   5      23.481  21.295  39.178  0.00  0.00    +0.075 C 
BRANCH  13  14
ATOM     14  CG  HIS A   5      24.029  20.373  38.131  0.00  0.00    +0.082 A 
ATOM     15  CD2 HIS A   5      23.731  19.087  37.829  0.00  0.00    +0.115 A 
ATOM     16  NE2 HIS A   5      24.527  18.716  36.751  0.00  0.00    -0.221 NA
ATOM     17  CE1 HIS A   5      25.304  19.738  36.437  0.00  0.00    +0.199 A 
ATOM     18  ND1 HIS A   5      25.053  20.749  37.271  0.00  0.00    -0.227 NA
ENDBRANCH  13  14
ENDBRANCH  10  13
ENDBRANCH   8  10
ENDBRANCH   5   6
BRANCH   5  19
ATOM     19  CB  VAL A   4      18.438  18.249  39.675  0.00  0.00    +0.027 C 
ATOM     20  CG2 VAL A   4      18.150  19.221  40.829  0.00  0.00    +0.002 C 
ATOM     21  CG1 VAL A   4      17.152  18.003  38.837  0.00  0.00    +0.002 C 
ENDBRANCH   5  19
ENDBRANCH   2   5
BRANCH   1  22
ATOM     22  CA  LEU A   3      20.391  16.995  35.495  0.00  0.00    +0.149 C 
BRANCH  22  25
ATOM     23  C   GLY A   2      18.842  16.114  33.956  0.00  0.00    +0.243 C 
ATOM     24  O   GLY A   2      18.824  15.024  34.563  0.00  0.00    -0.273 OA
ATOM     25  N   LEU A   3      19.537  17.146  34.369  0.00  0.00    -0.297 N 
ATOM     26  H   LEU A   3      19.465  18.061  33.880  0.00  0.00    +0.150 HD
BRANCH  23  27
ATOM     27  CA  GLY A   2      17.985  16.302  32.718  0.00  0.00    +0.176 C 
BRANCH  27  29
ATOM     28  C   VAL A   1      18.905  14.897  30.947  0.00  0.00    +0.238 C 
ATOM     29  N   GLY A   2      18.054  15.017  31.972  0.00  0.00    -0.296 N 
ATOM     30  H   GLY A   2      17.446  14.219  32.245  0.00  0.00    +0.150 HD
ATOM     31  O   VAL A   1      19.561  15.852  30.442  0.00  0.00    -0.274 OA
BRANCH  28  32
ATOM     32  CA  VAL A   1      19.065  13.493  30.371  0.00  0.00    +0.145 C 
BRANCH  32  33
ATOM     33  CB  VAL A   1      20.276  12.766  31.046  0.00  0.00    +0.025 C 
ATOM     34  CG2 VAL A   1      20.021  12.535  32.544  0.00  0.00    +0.002 C 
ATOM     35  CG1 VAL A   1      21.572  13.587  30.805  0.00  0.00    +0.002 C 
ENDBRANCH  32  33
BRANCH  32  36
ATOM     36  N   VAL A   1      19.306  13.668  28.948  0.00  0.00    -0.238 NA
ATOM     37  H   VAL A   1      19.888  14.466  28.623  0.00  0.00    +0.142 HD
ENDBRANCH  32  36
ENDBRANCH  28  32
ENDBRANCH  27  29
ENDBRANCH  23  27
ENDBRANCH  22  25
BRANCH  22  38
ATOM     38  CB  LEU A   3      21.855  17.071  35.037  0.00  0.00    +0.029 C 
BRANCH  38  39
ATOM     39  CG  LEU A   3      22.211  15.864  34.170  0.00  0.00    +0.002 C 
ATOM     40  CD2 LEU A   3      22.538  14.632  35.099  0.00  0.00    +0.000 C 
ATOM     41  CD1 LEU A   3      23.433  16.191  33.255  0.00  0.00    +0.000 C 
ENDBRANCH  38  39
ENDBRANCH  22  38
ENDBRANCH   1  22
TORSDOF 16
REMARK  Name = ../refined-set-2016/2py4/2py4_pocket.pdb
REMARK  221 active torsions:
REMARK  status: ('A' for Active; 'I' for Inactive)
REMARK    1  A    between atoms: _1  and  _3
REMARK    2  A    between atoms: _3  and  _4
REMARK    3  A    between atoms: _3  and  _6
REMARK    4  A    between atoms: _6  and  _7
REMARK    5  A    between atoms: _10  and  _12
REMARK    6  A    between atoms: _12  and  _13
REMARK    7  A    between atoms: _12  and  _15
REMARK    8  A    between atoms: _15  and  _16
REMARK    9  A    between atoms: _19  and  _21
REMARK   10  A    between atoms: _21  and  _22
REMARK   11  A    between atoms: _21  and  _24
REMARK   12  A    between atoms: _27  and  _29
REMARK   13  A    between atoms: _29  and  _30
REMARK   14  A    between atoms: _29  and  _32
REMARK   15  A    between atoms: _32  and  _33
REMARK   16  A    between atoms: _36  and  _38
REMARK   17  A    between atoms: _38  and  _39
REMARK   18  A    between atoms: _38  and  _41
REMARK   19  A    between atoms: _44  and  _46
REMARK   20  A    between atoms: _46  and  _47
REMARK   21  A    between atoms: _46  and  _49
REMARK   22  A    between atoms: _52  and  _54
REMARK   23  A    between atoms: _54  and  _55
REMARK   24  A    between atoms: _54  and  _57
REMARK   25  A    between atoms: _60  and  _62
REMARK   26  A    between atoms: _62  and  _63
REMARK   27  A    between atoms: _62  and  _65
REMARK   28  A    between atoms: _68  and  _70
REMARK   29  A    between atoms: _70  and  _71
REMARK   30  A    between atoms: _73  and  _75
REMARK   31  A    between atoms: _75  and  _76
REMARK   32  A    between atoms: _75  and  _78
REMARK   33  A    between atoms: _78  and  _79
REMARK   34  A    between atoms: _82  and  _84
REMARK   35  A    between atoms: _84  and  _85
REMARK   36  A    between atoms: _84  and  _87
REMARK   37  A    between atoms: _90  and  _92
REMARK   38  A    between atoms: _92  and  _93
REMARK   39  A    between atoms: _92  and  _95
REMARK   40  A    between atoms: _95  and  _96
REMARK   41  A    between atoms: _101  and  _103
REMARK   42  A    between atoms: _103  and  _104
REMARK   43  A    between atoms: _103  and  _106
REMARK   44  A    between atoms: _106  and  _107
REMARK   45  A    between atoms: _110  and  _112
REMARK   46  A    between atoms: _112  and  _113
REMARK   47  A    between atoms: _112  and  _115
REMARK   48  A    between atoms: _118  and  _120
REMARK   49  A    between atoms: _120  and  _121
REMARK   50  A    between atoms: _120  and  _123
REMARK   51  A    between atoms: _123  and  _124
REMARK   52  A    between atoms: _129  and  _131
REMARK   53  A    between atoms: _131  and  _132
REMARK   54  A    between atoms: _131  and  _134
REMARK   55  A    between atoms: _134  and  _135
REMARK   56  A    between atoms: _138  and  _139
REMARK   57  A    between atoms: _144  and  _146
REMARK   58  A    between atoms: _146  and  _147
REMARK   59  A    between atoms: _149  and  _151
REMARK   60  A    between atoms: _151  and  _152
REMARK   61  A    between atoms: _151  and  _154
REMARK   62  A    between atoms: _154  and  _155
REMARK   63  A    between atoms: _158  and  _160
REMARK   64  A    between atoms: _160  and  _161
REMARK   65  A    between atoms: _160  and  _163
REMARK   66  A    between atoms: _163  and  _164
REMARK   67  A    between atoms: _167  and  _169
REMARK   68  A    between atoms: _169  and  _170
REMARK   69  A    between atoms: _169  and  _172
REMARK   70  A    between atoms: _172  and  _173
REMARK   71  A    between atoms: _176  and  _178
REMARK   72  A    between atoms: _178  and  _179
REMARK   73  A    between atoms: _182  and  _184
REMARK   74  A    between atoms: _184  and  _185
REMARK   75  A    between atoms: _187  and  _189
REMARK   76  A    between atoms: _189  and  _190
REMARK   77  A    between atoms: _189  and  _192
REMARK   78  A    between atoms: _192  and  _193
REMARK   79  A    between atoms: _198  and  _199
REMARK   80  A    between atoms: _201  and  _203
REMARK   81  A    between atoms: _203  and  _204
REMARK   82  A    between atoms: _203  and  _206
REMARK   83  A    between atoms: _206  and  _207
REMARK   84  A    between atoms: _207  and  _208
REMARK   85  A    between atoms: _208  and  _209
REMARK   86  A    between atoms: _218  and  _220
REMARK   87  A    between atoms: _220  and  _221
REMARK   88  A    between atoms: _223  and  _225
REMARK   89  A    between atoms: _225  and  _226
REMARK   90  A    between atoms: _225  and  _228
REMARK   91  A    between atoms: _228  and  _229
REMARK   92  A    between atoms: _229  and  _230
REMARK   93  A    between atoms: _233  and  _235
REMARK   94  A    between atoms: _235  and  _236
REMARK   95  A    between atoms: _235  and  _238
REMARK   96  A    between atoms: _238  and  _239
REMARK   97  A    between atoms: _242  and  _244
REMARK   98  A    between atoms: _244  and  _245
REMARK   99  A    between atoms: _244  and  _247
REMARK  100  A    between atoms: _247  and  _248
REMARK  101  A    between atoms: _248  and  _249
REMARK  102  A    between atoms: _249  and  _250
REMARK  103  A    between atoms: _250  and  _251
REMARK  104  A    between atoms: _255  and  _257
REMARK  105  A    between atoms: _257  and  _258
REMARK  106  A    between atoms: _257  and  _260
REMARK  107  A    between atoms: _263  and  _265
REMARK  108  A    between atoms: _265  and  _266
REMARK  109  A    between atoms: _269  and  _271
REMARK  110  A    between atoms: _271  and  _272
REMARK  111  A    between atoms: _271  and  _274
REMARK  112  A    between atoms: _274  and  _275
REMARK  113  A    between atoms: _278  and  _280
REMARK  114  A    between atoms: _280  and  _281
REMARK  115  A    between atoms: _280  and  _283
REMARK  116  A    between atoms: _283  and  _284
REMARK  117  A    between atoms: _284  and  _285
REMARK  118  A    between atoms: _285  and  _286
REMARK  119  A    between atoms: _295  and  _297
REMARK  120  A    between atoms: _297  and  _298
REMARK  121  A    between atoms: _301  and  _303
REMARK  122  A    between atoms: _303  and  _304
REMARK  123  A    between atoms: _303  and  _306
REMARK  124  A    between atoms: _306  and  _307
REMARK  125  A    between atoms: _312  and  _314
REMARK  126  A    between atoms: _314  and  _315
REMARK  127  A    between atoms: _314  and  _317
REMARK  128  A    between atoms: _317  and  _318
REMARK  129  A    between atoms: _321  and  _323
REMARK  130  A    between atoms: _323  and  _324
REMARK  131  A    between atoms: _327  and  _329
REMARK  132  A    between atoms: _329  and  _330
REMARK  133  A    between atoms: _332  and  _334
REMARK  134  A    between atoms: _334  and  _335
REMARK  135  A    between atoms: _334  and  _337
REMARK  136  A    between atoms: _337  and  _338
REMARK  137  A    between atoms: _341  and  _343
REMARK  138  A    between atoms: _343  and  _344
REMARK  139  A    between atoms: _343  and  _346
REMARK  140  A    between atoms: _346  and  _347
REMARK  141  A    between atoms: _353  and  _354
REMARK  142  A    between atoms: _359  and  _361
REMARK  143  A    between atoms: _361  and  _362
REMARK  144  A    between atoms: _361  and  _364
REMARK  145  A    between atoms: _364  and  _365
REMARK  146  A    between atoms: _365  and  _366
REMARK  147  A    between atoms: _366  and  _367
REMARK  148  A    between atoms: _376  and  _378
REMARK  149  A    between atoms: _378  and  _379
REMARK  150  A    between atoms: _378  and  _381
REMARK  151  A    between atoms: _381  and  _382
REMARK  152  A    between atoms: _384  and  _386
REMARK  153  A    between atoms: _386  and  _387
REMARK  154  A    between atoms: _389  and  _391
REMARK  155  A    between atoms: _391  and  _392
REMARK  156  A    between atoms: _391  and  _394
REMARK  157  A    between atoms: _394  and  _395
REMARK  158  A    between atoms: _398  and  _400
REMARK  159  A    between atoms: _400  and  _401
REMARK  160  A    between atoms: _404  and  _406
REMARK  161  A    between atoms: _406  and  _407
REMARK  162  A    between atoms: _406  and  _409
REMARK  163  A    between atoms: _409  and  _410
REMARK  164  A    between atoms: _413  and  _415
REMARK  165  A    between atoms: _415  and  _416
REMARK  166  A    between atoms: _415  and  _418
REMARK  167  A    between atoms: _420  and  _422
REMARK  168  A    between atoms: _422  and  _423
REMARK  169  A    between atoms: _422  and  _425
REMARK  170  A    between atoms: _425  and  _426
REMARK  171  A    between atoms: _426  and  _427
REMARK  172  A    between atoms: _427  and  _428
REMARK  173  A    between atoms: _437  and  _439
REMARK  174  A    between atoms: _439  and  _440
REMARK  175  A    between atoms: _443  and  _445
REMARK  176  A    between atoms: _445  and  _446
REMARK  177  A    between atoms: _445  and  _448
REMARK  178  A    between atoms: _448  and  _449
REMARK  179  A    between atoms: _449  and  _450
REMARK  180  A    between atoms: _455  and  _457
REMARK  181  A    between atoms: _457  and  _458
REMARK  182  A    between atoms: _457  and  _460
REMARK  183  A    between atoms: _460  and  _461
REMARK  184  A    between atoms: _464  and  _466
REMARK  185  A    between atoms: _466  and  _467
REMARK  186  A    between atoms: _466  and  _469
REMARK  187  A    between atoms: _469  and  _470
REMARK  188  A    between atoms: _470  and  _471
REMARK  189  A    between atoms: _471  and  _472
REMARK  190  A    between atoms: _481  and  _483
REMARK  191  A    between atoms: _483  and  _484
REMARK  192  A    between atoms: _486  and  _488
REMARK  193  A    between atoms: _488  and  _489
REMARK  194  A    between atoms: _488  and  _491
REMARK  195  A    between atoms: _491  and  _492
REMARK  196  A    between atoms: _495  and  _497
REMARK  197  A    between atoms: _497  and  _498
REMARK  198  A    between atoms: _500  and  _502
REMARK  199  A    between atoms: _502  and  _503
REMARK  200  A    between atoms: _505  and  _507
REMARK  201  A    between atoms: _507  and  _508
REMARK  202  A    between atoms: _507  and  _510
REMARK  203  A    between atoms: _510  and  _511
REMARK  204  A    between atoms: _516  and  _518
REMARK  205  A    between atoms: _518  and  _519
REMARK  206  A    between atoms: _521  and  _523
REMARK  207  A    between atoms: _523  and  _524
REMARK  208  A    between atoms: _523  and  _526
REMARK  209  A    between atoms: _526  and  _527
REMARK  210  A    between atoms: _529  and  _531
REMARK  211  A    between atoms: _531  and  _532
REMARK  212  A    between atoms: _531  and  _534
REMARK  213  A    between atoms: _534  and  _535
REMARK  214  A    between atoms: _537  and  _539
REMARK  215  A    between atoms: _539  and  _540
REMARK  216  A    between atoms: _542  and  _544
REMARK  217  A    between atoms: _544  and  _545
REMARK  218  A    between atoms: _547  and  _549
REMARK  219  A    between atoms: _549  and  _550
REMARK  220  A    between atoms: _549  and  _552
REMARK  221  A    between atoms: _552  and  _553
REMARK                            x       y       z     vdW  Elec       q    Type
REMARK                         _______ _______ _______ _____ _____    ______ ____
ROOT
ATOM      1  CA  GLY A  11      10.693   8.895  30.174  0.00  0.00    +0.176 C 
ENDROOT
BRANCH   1   3
ATOM      2  C   ALA A  10      12.337  10.521  29.480  0.00  0.00    +0.241 C 
ATOM      3  N   GLY A  11      12.086   9.372  30.113  0.00  0.00    -0.295 N 
ATOM      4  H   GLY A  11      12.855   8.827  30.552  0.00  0.00    +0.150 HD
ATOM      5  O   ALA A  10      11.438  11.176  28.934  0.00  0.00    -0.273 OA
BRANCH   2   6
ATOM      6  CA  ALA A  10      13.788  10.970  29.364  0.00  0.00    +0.149 C 
ATOM      7  CB  ALA A  10      14.399  10.425  28.068  0.00  0.00    +0.031 C 
BRANCH   6  10
ATOM      8  C   ASP A   9      14.301  10.831  31.735  0.00  0.00    +0.241 C 
ATOM      9  O   ASP A   9      13.297  11.491  32.029  0.00  0.00    -0.273 OA
ATOM     10  N   ALA A  10      14.604  10.503  30.470  0.00  0.00    -0.297 N 
ATOM     11  H   ALA A  10      15.434   9.906  30.279  0.00  0.00    +0.150 HD
BRANCH   8  12
ATOM     12  CA  ASP A   9      15.248  10.348  32.781  0.00  0.00    +0.160 C 
BRANCH  12  14
ATOM     13  C   ILE A   8      15.908  12.336  33.970  0.00  0.00    +0.241 C 
ATOM     14  N   ASP A   9      15.244  11.193  33.967  0.00  0.00    -0.297 N 
ATOM     15  H   ASP A   9      14.718  10.897  34.814  0.00  0.00    +0.150 HD
ATOM     16  O   ILE A   8      16.506  12.783  32.953  0.00  0.00    -0.273 OA
BRANCH  13  17
ATOM     17  CA  ILE A   8      15.912  13.079  35.317  0.00  0.00    +0.149 C 
BRANCH  17  20
ATOM     18  C   THR A   7      17.756  12.178  36.666  0.00  0.00    +0.243 C 
ATOM     19  O   THR A   7      17.050  11.244  37.107  0.00  0.00    -0.273 OA
ATOM     20  N   ILE A   8      17.302  13.095  35.810  0.00  0.00    -0.297 N 
ATOM     21  H   ILE A   8      17.946  13.842  35.481  0.00  0.00    +0.150 HD
BRANCH  18  22
ATOM     22  CA  THR A   7      19.192  12.369  37.092  0.00  0.00    +0.176 C 
BRANCH  22  24
ATOM     23  C   GLY A   6      19.643  14.148  38.697  0.00  0.00    +0.243 C 
ATOM     24  N   THR A   7      19.210  12.888  38.463  0.00  0.00    -0.295 N 
ATOM     25  H   THR A   7      18.891  12.290  39.252  0.00  0.00    +0.150 HD
ATOM     26  O   GLY A   6      19.941  14.958  37.803  0.00  0.00    -0.273 OA
BRANCH  23  27
ATOM     27  CA  GLY A   6      19.791  14.548  40.157  0.00  0.00    +0.176 C 
BRANCH  27  29
ATOM     28  C   PRO A   5      22.216  14.758  40.005  0.00  0.00    +0.241 C 
ATOM     29  N   GLY A   6      21.016  15.305  40.301  0.00  0.00    -0.295 N 
ATOM     30  H   GLY A   6      20.972  16.288  40.638  0.00  0.00    +0.150 HD
ATOM     31  O   PRO A   5      22.354  13.551  39.750  0.00  0.00    -0.273 OA
BRANCH  28  38
ATOM     32  C   SER A   4      24.388  14.764  42.389  0.00  0.00    +0.246 C 
ATOM     33  O   SER A   4      25.222  14.079  42.985  0.00  0.00    -0.273 OA
ATOM     34  N   PRO A   5      24.369  14.893  41.068  0.00  0.00    -0.272 N 
ATOM     35  CD  PRO A   5      25.433  14.210  40.305  0.00  0.00    +0.094 C 
ATOM     36  CG  PRO A   5      25.048  14.434  38.832  0.00  0.00    +0.024 C 
ATOM     37  CB  PRO A   5      24.213  15.703  38.854  0.00  0.00    +0.031 C 
ATOM     38  CA  PRO A   5      23.455  15.656  40.177  0.00  0.00    +0.152 C 
BRANCH  32  39
ATOM     39  CA  SER A   4      23.359  15.536  43.140  0.00  0.00    +0.178 C 
BRANCH  39  41
ATOM     40  C   ASN A   3      22.143  13.649  43.923  0.00  0.00    +0.241 C 
ATOM     41  N   SER A   4      22.810  14.763  44.218  0.00  0.00    -0.295 N 
ATOM     42  H   SER A   4      22.930  15.066  45.206  0.00  0.00    +0.150 HD
ATOM     43  O   ASN A   3      22.088  13.214  42.797  0.00  0.00    -0.273 OA
BRANCH  40  44
ATOM     44  CA  ASN A   3      21.489  12.878  45.059  0.00  0.00    +0.158 C 
BRANCH  44  47
ATOM     45  C   VAL A   2      22.056  13.725  47.235  0.00  0.00    +0.241 C 
ATOM     46  O   VAL A   2      23.177  13.101  47.222  0.00  0.00    -0.273 OA
ATOM     47  N   ASN A   3      21.193  13.715  46.192  0.00  0.00    -0.297 N 
ATOM     48  H   ASN A   3      20.333  14.300  46.209  0.00  0.00    +0.150 HD
BRANCH  45  49
ATOM     49  CA  VAL A   2      21.629  14.578  48.442  0.00  0.00    +0.148 C 
BRANCH  49  51
ATOM     50  C   ILE A   1      21.845  16.685  47.326  0.00  0.00    +0.238 C 
ATOM     51  N   VAL A   2      21.049  15.844  48.003  0.00  0.00    -0.297 N 
ATOM     52  H   VAL A   2      20.058  16.084  48.207  0.00  0.00    +0.150 HD
ATOM     53  O   ILE A   1      22.982  16.355  46.897  0.00  0.00    -0.274 OA
BRANCH  50  54
ATOM     54  CA  ILE A   1      21.338  18.081  47.141  0.00  0.00    +0.145 C 
BRANCH  54  55
ATOM     55  CB  ILE A   1      21.003  18.386  45.637  0.00  0.00    +0.025 C 
ATOM     56  CG2 ILE A   1      20.061  17.326  45.062  0.00  0.00    +0.002 C 
BRANCH  55  57
ATOM     57  CG1 ILE A   1      20.377  19.804  45.579  0.00  0.00    +0.002 C 
ATOM     58  CD1 ILE A   1      20.129  20.269  44.131  0.00  0.00    +0.000 C 
ENDBRANCH  55  57
ENDBRANCH  54  55
BRANCH  54  59
ATOM     59  N   ILE A   1      22.392  18.981  47.692  0.00  0.00    -0.238 NA
ATOM     60  H   ILE A   1      23.391  18.798  47.467  0.00  0.00    +0.142 HD
ENDBRANCH  54  59
ENDBRANCH  50  54
ENDBRANCH  49  51
BRANCH  49  61
ATOM     61  CB  VAL A   2      20.573  13.801  49.248  0.00  0.00    +0.027 C 
ATOM     62  CG2 VAL A   2      20.141  14.651  50.481  0.00  0.00    +0.002 C 
ATOM     63  CG1 VAL A   2      21.222  12.473  49.800  0.00  0.00    +0.002 C 
ENDBRANCH  49  61
ENDBRANCH  45  49
ENDBRANCH  44  47
BRANCH  44  64
ATOM     64  CB  ASN A   3      20.228  12.193  44.539  0.00  0.00    +0.114 C 
BRANCH  64  65
ATOM     65  CG  ASN A   3      19.203  13.181  44.091  0.00  0.00    +0.222 C 
ATOM     66  OD1 ASN A   3      19.082  14.319  44.660  0.00  0.00    -0.275 OA
ATOM     67  ND2 ASN A   3      18.419  12.789  43.053  0.00  0.00    -0.329 N 
ATOM     68 HD21 ASN A   3      17.682  13.426  42.689  0.00  0.00    +0.145 HD
ATOM     69 HD22 ASN A   3      18.556  11.852  42.623  0.00  0.00    +0.145 HD
ENDBRANCH  64  65
ENDBRANCH  44  64
ENDBRANCH  40  44
ENDBRANCH  39  41
BRANCH  39  70
ATOM     70  CB  SER A   4      24.034  16.793  43.712  0.00  0.00    +0.166 C 
BRANCH  70  71
ATOM     71  OG  SER A   4      24.416  17.620  42.596  0.00  0.00    -0.380 OA
ATOM     72  H   SER A   4      24.856  18.442  42.931  0.00  0.00    +0.211 HD
ENDBRANCH  70  71
ENDBRANCH  39  70
ENDBRANCH  32  39
ENDBRANCH  28  38
ENDBRANCH  27  29
ENDBRANCH  23  27
ENDBRANCH  22  24
BRANCH  22  73
ATOM     73  CB  THR A   7      19.967  11.039  37.061  0.00  0.00    +0.137 C 
ATOM     74  CG2 THR A   7      20.075  10.536  35.637  0.00  0.00    +0.034 C 
BRANCH  73  75
ATOM     75  OG1 THR A   7      21.266  11.232  37.643  0.00  0.00    -0.382 OA
ATOM     76  HG1 THR A   7      21.165  11.535  38.580  0.00  0.00    +0.210 HD
ENDBRANCH  73  75
ENDBRANCH  22  73
ENDBRANCH  18  22
ENDBRANCH  17  20
BRANCH  17  77
ATOM     77  CB  ILE A   8      15.404  14.513  35.077  0.00  0.00    +0.027 C 
ATOM     78  CG2 ILE A   8      13.938  14.547  34.659  0.00  0.00    +0.002 C 
BRANCH  77  79
ATOM     79  CG1 ILE A   8      15.684  15.397  36.280  0.00  0.00    +0.002 C 
ATOM     80  CD1 ILE A   8      15.106  14.922  37.598  0.00  0.00    +0.000 C 
ENDBRANCH  77  79
ENDBRANCH  17  77
ENDBRANCH  13  17
ENDBRANCH  12  14
BRANCH  12  81
ATOM     81  CB  ASP A   9      14.762   8.987  33.174  0.00  0.00    +0.143 C 
BRANCH  81  82
ATOM     82  CG  ASP A   9      15.707   8.337  34.154  0.00  0.00    +0.367 C 
ATOM     83  OD2 ASP A   9      15.315   8.087  35.286  0.00  0.00    -0.246 OA
ATOM     84  OD1 ASP A   9      16.892   8.149  33.799  0.00  0.00    -0.246 OA
ENDBRANCH  81  82
ENDBRANCH  12  81
ENDBRANCH   8  12
ENDBRANCH   6  10
ENDBRANCH   2   6
ENDBRANCH   1   3
BRANCH   1  85
ATOM     85  C   GLY A  11       9.922   9.442  31.334  0.00  0.00    +0.243 C 
ATOM     86  N   TYR A  12      10.591  10.175  32.218  0.00  0.00    -0.297 N 
ATOM     87  H   TYR A  12      11.587  10.425  32.053  0.00  0.00    +0.150 HD
ATOM     88  O   GLY A  11       8.735   9.167  31.502  0.00  0.00    -0.273 OA
BRANCH  86  89
ATOM     89  CA  TYR A  12       9.901  10.622  33.425  0.00  0.00    +0.153 C 
BRANCH  89  90
ATOM     90  C   TYR A  12       8.931  11.728  33.114  0.00  0.00    +0.241 C 
ATOM     91  N   ARG A  13       7.698  11.563  33.592  0.00  0.00    -0.297 N 
ATOM     92  H   ARG A  13       7.444  10.700  34.114  0.00  0.00    +0.150 HD
ATOM     93  O   TYR A  12       9.258  12.757  32.480  0.00  0.00    -0.273 OA
BRANCH  91  94
ATOM     94  CA  ARG A  13       6.700  12.625  33.368  0.00  0.00    +0.149 C 
BRANCH  94  95
ATOM     95  C   ARG A  13       6.118  13.113  34.686  0.00  0.00    +0.241 C 
ATOM     96  N   GLY A  14       6.729  12.743  35.785  0.00  0.00    -0.295 N 
ATOM     97  H   GLY A  14       7.541  12.096  35.726  0.00  0.00    +0.150 HD
ATOM     98  O   ARG A  13       5.106  13.815  34.710  0.00  0.00    -0.273 OA
BRANCH  96  99
ATOM     99  CA  GLY A  14       6.290  13.222  37.086  0.00  0.00    +0.176 C 
BRANCH  99 100
ATOM    100  C   GLY A  14       6.858  14.621  37.414  0.00  0.00    +0.243 C 
ATOM    101  N   GLU A  15       6.574  15.063  38.656  0.00  0.00    -0.297 N 
ATOM    102  H   GLU A  15       5.982  14.491  39.291  0.00  0.00    +0.150 HD
ATOM    103  O   GLY A  14       7.546  15.234  36.598  0.00  0.00    -0.273 OA
BRANCH 101 104
ATOM    104  CA  GLU A  15       7.098  16.340  39.103  0.00  0.00    +0.149 C 
BRANCH 104 105
ATOM    105  C   GLU A  15       8.563  16.201  39.436  0.00  0.00    +0.241 C 
ATOM    106  O   GLU A  15       8.977  15.215  40.114  0.00  0.00    -0.273 OA
ATOM    107  N   ILE A  16       9.361  17.186  39.009  0.00  0.00    -0.297 N 
ATOM    108  H   ILE A  16       8.996  17.927  38.377  0.00  0.00    +0.150 HD
BRANCH 107 109
ATOM    109  CA  ILE A  16      10.784  17.203  39.456  0.00  0.00    +0.149 C 
BRANCH 109 110
ATOM    110  C   ILE A  16      10.812  17.585  40.906  0.00  0.00    +0.241 C 
ATOM    111  N   LYS A  17      11.515  16.796  41.694  0.00  0.00    -0.297 N 
ATOM    112  H   LYS A  17      12.023  15.985  41.288  0.00  0.00    +0.150 HD
ATOM    113  O   ILE A  16      10.233  18.598  41.329  0.00  0.00    -0.273 OA
BRANCH 111 114
ATOM    114  CA  LYS A  17      11.590  17.053  43.160  0.00  0.00    +0.149 C 
BRANCH 114 115
ATOM    115  C   LYS A  17      13.098  17.161  43.449  0.00  0.00    +0.241 C 
ATOM    116  N   VAL A  18      13.412  17.985  44.446  0.00  0.00    -0.297 N 
ATOM    117  H   VAL A  18      12.663  18.434  45.012  0.00  0.00    +0.150 HD
ATOM    118  O   LYS A  17      13.973  16.482  42.848  0.00  0.00    -0.273 OA
BRANCH 116 119
ATOM    119  CA  VAL A  18      14.827  18.255  44.740  0.00  0.00    +0.149 C 
BRANCH 119 120
ATOM    120  C   VAL A  18      15.098  17.820  46.179  0.00  0.00    +0.241 C 
ATOM    121  O   VAL A  18      14.445  18.299  47.151  0.00  0.00    -0.273 OA
ATOM    122  N   ALA A  19      16.117  16.985  46.347  0.00  0.00    -0.298 N 
ATOM    123  H   ALA A  19      16.718  16.724  45.539  0.00  0.00    +0.150 HD
BRANCH 122 124
ATOM    124  CA  ALA A  19      16.388  16.436  47.672  0.00  0.00    +0.137 C 
ATOM    125  CB  ALA A  19      16.975  15.064  47.551  0.00  0.00    +0.030 C 
BRANCH 124 126
ATOM    126  C   ALA A  19      17.380  17.394  48.348  0.00  0.00    +0.227 C 
ATOM    127  O   ALA A  19      18.613  17.123  48.447  0.00  0.00    -0.286 OA
ENDBRANCH 124 126
ENDBRANCH 122 124
ENDBRANCH 119 120
BRANCH 119 128
ATOM    128  CB  VAL A  18      15.145  19.738  44.591  0.00  0.00    +0.027 C 
ATOM    129  CG2 VAL A  18      16.618  20.042  44.975  0.00  0.00    +0.002 C 
ATOM    130  CG1 VAL A  18      14.914  20.189  43.171  0.00  0.00    +0.002 C 
ENDBRANCH 119 128
ENDBRANCH 116 119
ENDBRANCH 114 115
BRANCH 114 131
ATOM    131  CB  LYS A  17      10.969  15.950  44.022  0.00  0.00    +0.029 C 
BRANCH 131 132
ATOM    132  CG  LYS A  17       9.450  15.783  43.627  0.00  0.00    +0.000 C 
BRANCH 132 133
ATOM    133  CD  LYS A  17       8.740  14.743  44.456  0.00  0.00    -0.024 C 
BRANCH 133 134
ATOM    134  CE  LYS A  17       7.313  14.511  43.924  0.00  0.00    -0.086 C 
BRANCH 134 135
ATOM    135  NZ  LYS A  17       6.621  13.636  44.916  0.00  0.00    +0.380 N 
ATOM    136  HZ1 LYS A  17       6.599  14.112  45.840  0.00  0.00    -0.089 HD
ATOM    137  HZ2 LYS A  17       7.135  12.736  45.001  0.00  0.00    -0.089 HD
ATOM    138  HZ3 LYS A  17       5.649  13.452  44.596  0.00  0.00    -0.089 HD
ENDBRANCH 134 135
ENDBRANCH 133 134
ENDBRANCH 132 133
ENDBRANCH 131 132
ENDBRANCH 114 131
ENDBRANCH 111 114
ENDBRANCH 109 110
BRANCH 109 139
ATOM    139  CB  ILE A  16      11.594  18.211  38.637  0.00  0.00    +0.027 C 
ATOM    140  CG2 ILE A  16      13.009  18.376  39.246  0.00  0.00    +0.002 C 
BRANCH 139 141
ATOM    141  CG1 ILE A  16      11.683  17.753  37.151  0.00  0.00    +0.002 C 
ATOM    142  CD1 ILE A  16      12.581  18.715  36.332  0.00  0.00    +0.000 C 
ENDBRANCH 139 141
ENDBRANCH 109 139
ENDBRANCH 107 109
ENDBRANCH 104 105
BRANCH 104 143
ATOM    143  CB  GLU A  15       6.355  16.710  40.383  0.00  0.00    +0.041 C 
BRANCH 143 144
ATOM    144  CG  GLU A  15       6.806  18.106  40.880  0.00  0.00    +0.116 C 
BRANCH 144 145
ATOM    145  CD  GLU A  15       5.774  18.727  41.819  0.00  0.00    +0.365 C 
ATOM    146  OE2 GLU A  15       4.855  17.991  42.290  0.00  0.00    -0.246 OA
ATOM    147  OE1 GLU A  15       5.873  19.951  42.074  0.00  0.00    -0.246 OA
ENDBRANCH 144 145
ENDBRANCH 143 144
ENDBRANCH 104 143
ENDBRANCH 101 104
ENDBRANCH  99 100
ENDBRANCH  96  99
ENDBRANCH  94  95
BRANCH  94 148
ATOM    148  CB  ARG A  13       5.530  11.981  32.598  0.00  0.00    +0.033 C 
BRANCH 148 149
ATOM    149  CG  ARG A  13       5.938  11.609  31.159  0.00  0.00    +0.045 C 
BRANCH 149 150
ATOM    150  CD  ARG A  13       6.359  12.829  30.286  0.00  0.00    +0.174 C 
BRANCH 150 151
ATOM    151  NE  ARG A  13       6.840  12.382  28.957  0.00  0.00    -0.265 N 
ATOM    152  CZ  ARG A  13       8.120  12.166  28.679  0.00  0.00    +0.342 C 
ATOM    153  NH2 ARG A  13       9.046  12.386  29.619  0.00  0.00    -0.292 N 
ATOM    154 HH21 ARG A  13       8.761  12.724  30.560  0.00  0.00    +0.255 HD
ATOM    155 HH22 ARG A  13      10.051  12.219  29.408  0.00  0.00    +0.255 HD
ATOM    156  NH1 ARG A  13       8.478  11.744  27.456  0.00  0.00    -0.292 N 
ATOM    157 HH11 ARG A  13       9.480  11.574  27.237  0.00  0.00    +0.255 HD
ATOM    158 HH12 ARG A  13       7.753  11.587  26.727  0.00  0.00    +0.255 HD
ATOM    159  HE  ARG A  13       6.139  12.230  28.204  0.00  0.00    +0.259 HD
ENDBRANCH 150 151
ENDBRANCH 149 150
ENDBRANCH 148 149
ENDBRANCH  94 148
ENDBRANCH  91  94
ENDBRANCH  89  90
BRANCH  89 160
ATOM    160  CB  TYR A  12      10.904  11.228  34.372  0.00  0.00    +0.055 C 
BRANCH 160 161
ATOM    161  CG  TYR A  12      10.326  11.627  35.706  0.00  0.00    -0.020 A 
ATOM    162  CD2 TYR A  12       9.762  10.660  36.581  0.00  0.00    -0.001 A 
ATOM    163  CE2 TYR A  12       9.304  11.038  37.861  0.00  0.00    +0.036 A 
ATOM    164  CZ  TYR A  12       9.391  12.369  38.266  0.00  0.00    +0.134 A 
ATOM    165  CE1 TYR A  12       9.942  13.344  37.387  0.00  0.00    +0.036 A 
ATOM    166  CD1 TYR A  12      10.424  12.958  36.146  0.00  0.00    -0.001 A 
BRANCH 164 167
ATOM    167  OH  TYR A  12       8.925  12.680  39.546  0.00  0.00    -0.506 OA
ATOM    168  HH  TYR A  12       8.586  11.858  39.981  0.00  0.00    +0.292 HD
ENDBRANCH 164 167
ENDBRANCH 160 161
ENDBRANCH  89 160
ENDBRANCH  86  89
ENDBRANCH   1  85
TORSDOF 68
REMARK  Name = ../refined-set-2016/2py4/2py4_pocket.pdb
REMARK  221 active torsions:
REMARK  status: ('A' for Active; 'I' for Inactive)
REMARK    1  A    between atoms: _1  and  _3
REMARK    2  A    between atoms: _3  and  _4
REMARK    3  A    between atoms: _3  and  _6
REMARK    4  A    between atoms: _6  and  _7
REMARK    5  A    between atoms: _10  and  _12
REMARK    6  A    between atoms: _12  and  _13
REMARK    7  A    between atoms: _12  and  _15
REMARK    8  A    between atoms: _15  and  _16
REMARK    9  A    between atoms: _19  and  _21
REMARK   10  A    between atoms: _21  and  _22
REMARK   11  A    between atoms: _21  and  _24
REMARK   12  A    between atoms: _27  and  _29
REMARK   13  A    between atoms: _29  and  _30
REMARK   14  A    between atoms: _29  and  _32
REMARK   15  A    between atoms: _32  and  _33
REMARK   16  A    between atoms: _36  and  _38
REMARK   17  A    between atoms: _38  and  _39
REMARK   18  A    between atoms: _38  and  _41
REMARK   19  A    between atoms: _44  and  _46
REMARK   20  A    between atoms: _46  and  _47
REMARK   21  A    between atoms: _46  and  _49
REMARK   22  A    between atoms: _52  and  _54
REMARK   23  A    between atoms: _54  and  _55
REMARK   24  A    between atoms: _54  and  _57
REMARK   25  A    between atoms: _60  and  _62
REMARK   26  A    between atoms: _62  and  _63
REMARK   27  A    between atoms: _62  and  _65
REMARK   28  A    between atoms: _68  and  _70
REMARK   29  A    between atoms: _70  and  _71
REMARK   30  A    between atoms: _73  and  _75
REMARK   31  A    between atoms: _75  and  _76
REMARK   32  A    between atoms: _75  and  _78
REMARK   33  A    between atoms: _78  and  _79
REMARK   34  A    between atoms: _82  and  _84
REMARK   35  A    between atoms: _84  and  _85
REMARK   36  A    between atoms: _84  and  _87
REMARK   37  A    between atoms: _90  and  _92
REMARK   38  A    between atoms: _92  and  _93
REMARK   39  A    between atoms: _92  and  _95
REMARK   40  A    between atoms: _95  and  _96
REMARK   41  A    between atoms: _101  and  _103
REMARK   42  A    between atoms: _103  and  _104
REMARK   43  A    between atoms: _103  and  _106
REMARK   44  A    between atoms: _106  and  _107
REMARK   45  A    between atoms: _110  and  _112
REMARK   46  A    between atoms: _112  and  _113
REMARK   47  A    between atoms: _112  and  _115
REMARK   48  A    between atoms: _118  and  _120
REMARK   49  A    between atoms: _120  and  _121
REMARK   50  A    between atoms: _120  and  _123
REMARK   51  A    between atoms: _123  and  _124
REMARK   52  A    between atoms: _129  and  _131
REMARK   53  A    between atoms: _131  and  _132
REMARK   54  A    between atoms: _131  and  _134
REMARK   55  A    between atoms: _134  and  _135
REMARK   56  A    between atoms: _138  and  _139
REMARK   57  A    between atoms: _144  and  _146
REMARK   58  A    between atoms: _146  and  _147
REMARK   59  A    between atoms: _149  and  _151
REMARK   60  A    between atoms: _151  and  _152
REMARK   61  A    between atoms: _151  and  _154
REMARK   62  A    between atoms: _154  and  _155
REMARK   63  A    between atoms: _158  and  _160
REMARK   64  A    between atoms: _160  and  _161
REMARK   65  A    between atoms: _160  and  _163
REMARK   66  A    between atoms: _163  and  _164
REMARK   67  A    between atoms: _167  and  _169
REMARK   68  A    between atoms: _169  and  _170
REMARK   69  A    between atoms: _169  and  _172
REMARK   70  A    between atoms: _172  and  _173
REMARK   71  A    between atoms: _176  and  _178
REMARK   72  A    between atoms: _178  and  _179
REMARK   73  A    between atoms: _182  and  _184
REMARK   74  A    between atoms: _184  and  _185
REMARK   75  A    between atoms: _187  and  _189
REMARK   76  A    between atoms: _189  and  _190
REMARK   77  A    between atoms: _189  and  _192
REMARK   78  A    between atoms: _192  and  _193
REMARK   79  A    between atoms: _198  and  _199
REMARK   80  A    between atoms: _201  and  _203
REMARK   81  A    between atoms: _203  and  _204
REMARK   82  A    between atoms: _203  and  _206
REMARK   83  A    between atoms: _206  and  _207
REMARK   84  A    between atoms: _207  and  _208
REMARK   85  A    between atoms: _208  and  _209
REMARK   86  A    between atoms: _218  and  _220
REMARK   87  A    between atoms: _220  and  _221
REMARK   88  A    between atoms: _223  and  _225
REMARK   89  A    between atoms: _225  and  _226
REMARK   90  A    between atoms: _225  and  _228
REMARK   91  A    between atoms: _228  and  _229
REMARK   92  A    between atoms: _229  and  _230
REMARK   93  A    between atoms: _233  and  _235
REMARK   94  A    between atoms: _235  and  _236
REMARK   95  A    between atoms: _235  and  _238
REMARK   96  A    between atoms: _238  and  _239
REMARK   97  A    between atoms: _242  and  _244
REMARK   98  A    between atoms: _244  and  _245
REMARK   99  A    between atoms: _244  and  _247
REMARK  100  A    between atoms: _247  and  _248
REMARK  101  A    between atoms: _248  and  _249
REMARK  102  A    between atoms: _249  and  _250
REMARK  103  A    between atoms: _250  and  _251
REMARK  104  A    between atoms: _255  and  _257
REMARK  105  A    between atoms: _257  and  _258
REMARK  106  A    between atoms: _257  and  _260
REMARK  107  A    between atoms: _263  and  _265
REMARK  108  A    between atoms: _265  and  _266
REMARK  109  A    between atoms: _269  and  _271
REMARK  110  A    between atoms: _271  and  _272
REMARK  111  A    between atoms: _271  and  _274
REMARK  112  A    between atoms: _274  and  _275
REMARK  113  A    between atoms: _278  and  _280
REMARK  114  A    between atoms: _280  and  _281
REMARK  115  A    between atoms: _280  and  _283
REMARK  116  A    between atoms: _283  and  _284
REMARK  117  A    between atoms: _284  and  _285
REMARK  118  A    between atoms: _285  and  _286
REMARK  119  A    between atoms: _295  and  _297
REMARK  120  A    between atoms: _297  and  _298
REMARK  121  A    between atoms: _301  and  _303
REMARK  122  A    between atoms: _303  and  _304
REMARK  123  A    between atoms: _303  and  _306
REMARK  124  A    between atoms: _306  and  _307
REMARK  125  A    between atoms: _312  and  _314
REMARK  126  A    between atoms: _314  and  _315
REMARK  127  A    between atoms: _314  and  _317
REMARK  128  A    between atoms: _317  and  _318
REMARK  129  A    between atoms: _321  and  _323
REMARK  130  A    between atoms: _323  and  _324
REMARK  131  A    between atoms: _327  and  _329
REMARK  132  A    between atoms: _329  and  _330
REMARK  133  A    between atoms: _332  and  _334
REMARK  134  A    between atoms: _334  and  _335
REMARK  135  A    between atoms: _334  and  _337
REMARK  136  A    between atoms: _337  and  _338
REMARK  137  A    between atoms: _341  and  _343
REMARK  138  A    between atoms: _343  and  _344
REMARK  139  A    between atoms: _343  and  _346
REMARK  140  A    between atoms: _346  and  _347
REMARK  141  A    between atoms: _353  and  _354
REMARK  142  A    between atoms: _359  and  _361
REMARK  143  A    between atoms: _361  and  _362
REMARK  144  A    between atoms: _361  and  _364
REMARK  145  A    between atoms: _364  and  _365
REMARK  146  A    between atoms: _365  and  _366
REMARK  147  A    between atoms: _366  and  _367
REMARK  148  A    between atoms: _376  and  _378
REMARK  149  A    between atoms: _378  and  _379
REMARK  150  A    between atoms: _378  and  _381
REMARK  151  A    between atoms: _381  and  _382
REMARK  152  A    between atoms: _384  and  _386
REMARK  153  A    between atoms: _386  and  _387
REMARK  154  A    between atoms: _389  and  _391
REMARK  155  A    between atoms: _391  and  _392
REMARK  156  A    between atoms: _391  and  _394
REMARK  157  A    between atoms: _394  and  _395
REMARK  158  A    between atoms: _398  and  _400
REMARK  159  A    between atoms: _400  and  _401
REMARK  160  A    between atoms: _404  and  _406
REMARK  161  A    between atoms: _406  and  _407
REMARK  162  A    between atoms: _406  and  _409
REMARK  163  A    between atoms: _409  and  _410
REMARK  164  A    between atoms: _413  and  _415
REMARK  165  A    between atoms: _415  and  _416
REMARK  166  A    between atoms: _415  and  _418
REMARK  167  A    between atoms: _420  and  _422
REMARK  168  A    between atoms: _422  and  _423
REMARK  169  A    between atoms: _422  and  _425
REMARK  170  A    between atoms: _425  and  _426
REMARK  171  A    between atoms: _426  and  _427
REMARK  172  A    between atoms: _427  and  _428
REMARK  173  A    between atoms: _437  and  _439
REMARK  174  A    between atoms: _439  and  _440
REMARK  175  A    between atoms: _443  and  _445
REMARK  176  A    between atoms: _445  and  _446
REMARK  177  A    between atoms: _445  and  _448
REMARK  178  A    between atoms: _448  and  _449
REMARK  179  A    between atoms: _449  and  _450
REMARK  180  A    between atoms: _455  and  _457
REMARK  181  A    between atoms: _457  and  _458
REMARK  182  A    between atoms: _457  and  _460
REMARK  183  A    between atoms: _460  and  _461
REMARK  184  A    between atoms: _464  and  _466
REMARK  185  A    between atoms: _466  and  _467
REMARK  186  A    between atoms: _466  and  _469
REMARK  187  A    between atoms: _469  and  _470
REMARK  188  A    between atoms: _470  and  _471
REMARK  189  A    between atoms: _471  and  _472
REMARK  190  A    between atoms: _481  and  _483
REMARK  191  A    between atoms: _483  and  _484
REMARK  192  A    between atoms: _486  and  _488
REMARK  193  A    between atoms: _488  and  _489
REMARK  194  A    between atoms: _488  and  _491
REMARK  195  A    between atoms: _491  and  _492
REMARK  196  A    between atoms: _495  and  _497
REMARK  197  A    between atoms: _497  and  _498
REMARK  198  A    between atoms: _500  and  _502
REMARK  199  A    between atoms: _502  and  _503
REMARK  200  A    between atoms: _505  and  _507
REMARK  201  A    between atoms: _507  and  _508
REMARK  202  A    between atoms: _507  and  _510
REMARK  203  A    between atoms: _510  and  _511
REMARK  204  A    between atoms: _516  and  _518
REMARK  205  A    between atoms: _518  and  _519
REMARK  206  A    between atoms: _521  and  _523
REMARK  207  A    between atoms: _523  and  _524
REMARK  208  A    between atoms: _523  and  _526
REMARK  209  A    between atoms: _526  and  _527
REMARK  210  A    between atoms: _529  and  _531
REMARK  211  A    between atoms: _531  and  _532
REMARK  212  A    between atoms: _531  and  _534
REMARK  213  A    between atoms: _534  and  _535
REMARK  214  A    between atoms: _537  and  _539
REMARK  215  A    between atoms: _539  and  _540
REMARK  216  A    between atoms: _542  and  _544
REMARK  217  A    between atoms: _544  and  _545
REMARK  218  A    between atoms: _547  and  _549
REMARK  219  A    between atoms: _549  and  _550
REMARK  220  A    between atoms: _549  and  _552
REMARK  221  A    between atoms: _552  and  _553
REMARK                            x       y       z     vdW  Elec       q    Type
REMARK                         _______ _______ _______ _____ _____    ______ ____
ROOT
ATOM      1  CA  LEU A   1      18.320  22.056  35.634  0.00  0.00    +0.133 C 
ENDROOT
BRANCH   1   2
ATOM      2  N   LEU A   1      18.479  23.251  36.483  0.00  0.00    -0.239 NA
ATOM      3  H   LEU A   1      18.038  24.151  36.207  0.00  0.00    +0.142 HD
ENDBRANCH   1   2
BRANCH   1   4
ATOM      4  C   LEU A   1      19.072  22.213  34.320  0.00  0.00    +0.224 C 
ATOM      5  O   LEU A   1      18.839  23.177  33.559  0.00  0.00    -0.287 OA
ENDBRANCH   1   4
BRANCH   1   6
ATOM      6  CB  LEU A   1      16.810  21.922  35.302  0.00  0.00    +0.025 C 
BRANCH   6   7
ATOM      7  CG  LEU A   1      16.448  20.755  34.340  0.00  0.00    +0.002 C 
ATOM      8  CD2 LEU A   1      16.618  19.430  35.045  0.00  0.00    +0.000 C 
ATOM      9  CD1 LEU A   1      14.941  20.885  33.887  0.00  0.00    +0.000 C 
ENDBRANCH   6   7
ENDBRANCH   1   6
TORSDOF 4
REMARK  Name = ../refined-set-2016/2py4/2py4_pocket.pdb
REMARK  221 active torsions:
REMARK  status: ('A' for Active; 'I' for Inactive)
REMARK    1  A    between atoms: _1  and  _3
REMARK    2  A    between atoms: _3  and  _4
REMARK    3  A    between atoms: _3  and  _6
REMARK    4  A    between atoms: _6  and  _7
REMARK    5  A    between atoms: _10  and  _12
REMARK    6  A    between atoms: _12  and  _13
REMARK    7  A    between atoms: _12  and  _15
REMARK    8  A    between atoms: _15  and  _16
REMARK    9  A    between atoms: _19  and  _21
REMARK   10  A    between atoms: _21  and  _22
REMARK   11  A    between atoms: _21  and  _24
REMARK   12  A    between atoms: _27  and  _29
REMARK   13  A    between atoms: _29  and  _30
REMARK   14  A    between atoms: _29  and  _32
REMARK   15  A    between atoms: _32  and  _33
REMARK   16  A    between atoms: _36  and  _38
REMARK   17  A    between atoms: _38  and  _39
REMARK   18  A    between atoms: _38  and  _41
REMARK   19  A    between atoms: _44  and  _46
REMARK   20  A    between atoms: _46  and  _47
REMARK   21  A    between atoms: _46  and  _49
REMARK   22  A    between atoms: _52  and  _54
REMARK   23  A    between atoms: _54  and  _55
REMARK   24  A    between atoms: _54  and  _57
REMARK   25  A    between atoms: _60  and  _62
REMARK   26  A    between atoms: _62  and  _63
REMARK   27  A    between atoms: _62  and  _65
REMARK   28  A    between atoms: _68  and  _70
REMARK   29  A    between atoms: _70  and  _71
REMARK   30  A    between atoms: _73  and  _75
REMARK   31  A    between atoms: _75  and  _76
REMARK   32  A    between atoms: _75  and  _78
REMARK   33  A    between atoms: _78  and  _79
REMARK   34  A    between atoms: _82  and  _84
REMARK   35  A    between atoms: _84  and  _85
REMARK   36  A    between atoms: _84  and  _87
REMARK   37  A    between atoms: _90  and  _92
REMARK   38  A    between atoms: _92  and  _93
REMARK   39  A    between atoms: _92  and  _95
REMARK   40  A    between atoms: _95  and  _96
REMARK   41  A    between atoms: _101  and  _103
REMARK   42  A    between atoms: _103  and  _104
REMARK   43  A    between atoms: _103  and  _106
REMARK   44  A    between atoms: _106  and  _107
REMARK   45  A    between atoms: _110  and  _112
REMARK   46  A    between atoms: _112  and  _113
REMARK   47  A    between atoms: _112  and  _115
REMARK   48  A    between atoms: _118  and  _120
REMARK   49  A    between atoms: _120  and  _121
REMARK   50  A    between atoms: _120  and  _123
REMARK   51  A    between atoms: _123  and  _124
REMARK   52  A    between atoms: _129  and  _131
REMARK   53  A    between atoms: _131  and  _132
REMARK   54  A    between atoms: _131  and  _134
REMARK   55  A    between atoms: _134  and  _135
REMARK   56  A    between atoms: _138  and  _139
REMARK   57  A    between atoms: _144  and  _146
REMARK   58  A    between atoms: _146  and  _147
REMARK   59  A    between atoms: _149  and  _151
REMARK   60  A    between atoms: _151  and  _152
REMARK   61  A    between atoms: _151  and  _154
REMARK   62  A    between atoms: _154  and  _155
REMARK   63  A    between atoms: _158  and  _160
REMARK   64  A    between atoms: _160  and  _161
REMARK   65  A    between atoms: _160  and  _163
REMARK   66  A    between atoms: _163  and  _164
REMARK   67  A    between atoms: _167  and  _169
REMARK   68  A    between atoms: _169  and  _170
REMARK   69  A    between atoms: _169  and  _172
REMARK   70  A    between atoms: _172  and  _173
REMARK   71  A    between atoms: _176  and  _178
REMARK   72  A    between atoms: _178  and  _179
REMARK   73  A    between atoms: _182  and  _184
REMARK   74  A    between atoms: _184  and  _185
REMARK   75  A    between atoms: _187  and  _189
REMARK   76  A    between atoms: _189  and  _190
REMARK   77  A    between atoms: _189  and  _192
REMARK   78  A    between atoms: _192  and  _193
REMARK   79  A    between atoms: _198  and  _199
REMARK   80  A    between atoms: _201  and  _203
REMARK   81  A    between atoms: _203  and  _204
REMARK   82  A    between atoms: _203  and  _206
REMARK   83  A    between atoms: _206  and  _207
REMARK   84  A    between atoms: _207  and  _208
REMARK   85  A    between atoms: _208  and  _209
REMARK   86  A    between atoms: _218  and  _220
REMARK   87  A    between atoms: _220  and  _221
REMARK   88  A    between atoms: _223  and  _225
REMARK   89  A    between atoms: _225  and  _226
REMARK   90  A    between atoms: _225  and  _228
REMARK   91  A    between atoms: _228  and  _229
REMARK   92  A    between atoms: _229  and  _230
REMARK   93  A    between atoms: _233  and  _235
REMARK   94  A    between atoms: _235  and  _236
REMARK   95  A    between atoms: _235  and  _238
REMARK   96  A    between atoms: _238  and  _239
REMARK   97  A    between atoms: _242  and  _244
REMARK   98  A    between atoms: _244  and  _245
REMARK   99  A    between atoms: _244  and  _247
REMARK  100  A    between atoms: _247  and  _248
REMARK  101  A    between atoms: _248  and  _249
REMARK  102  A    between atoms: _249  and  _250
REMARK  103  A    between atoms: _250  and  _251
REMARK  104  A    between atoms: _255  and  _257
REMARK  105  A    between atoms: _257  and  _258
REMARK  106  A    between atoms: _257  and  _260
REMARK  107  A    between atoms: _263  and  _265
REMARK  108  A    between atoms: _265  and  _266
REMARK  109  A    between atoms: _269  and  _271
REMARK  110  A    between atoms: _271  and  _272
REMARK  111  A    between atoms: _271  and  _274
REMARK  112  A    between atoms: _274  and  _275
REMARK  113  A    between atoms: _278  and  _280
REMARK  114  A    between atoms: _280  and  _281
REMARK  115  A    between atoms: _280  and  _283
REMARK  116  A    between atoms: _283  and  _284
REMARK  117  A    between atoms: _284  and  _285
REMARK  118  A    between atoms: _285  and  _286
REMARK  119  A    between atoms: _295  and  _297
REMARK  120  A    between atoms: _297  and  _298
REMARK  121  A    between atoms: _301  and  _303
REMARK  122  A    between atoms: _303  and  _304
REMARK  123  A    between atoms: _303  and  _306
REMARK  124  A    between atoms: _306  and  _307
REMARK  125  A    between atoms: _312  and  _314
REMARK  126  A    between atoms: _314  and  _315
REMARK  127  A    between atoms: _314  and  _317
REMARK  128  A    between atoms: _317  and  _318
REMARK  129  A    between atoms: _321  and  _323
REMARK  130  A    between atoms: _323  and  _324
REMARK  131  A    between atoms: _327  and  _329
REMARK  132  A    between atoms: _329  and  _330
REMARK  133  A    between atoms: _332  and  _334
REMARK  134  A    between atoms: _334  and  _335
REMARK  135  A    between atoms: _334  and  _337
REMARK  136  A    between atoms: _337  and  _338
REMARK  137  A    between atoms: _341  and  _343
REMARK  138  A    between atoms: _343  and  _344
REMARK  139  A    between atoms: _343  and  _346
REMARK  140  A    between atoms: _346  and  _347
REMARK  141  A    between atoms: _353  and  _354
REMARK  142  A    between atoms: _359  and  _361
REMARK  143  A    between atoms: _361  and  _362
REMARK  144  A    between atoms: _361  and  _364
REMARK  145  A    between atoms: _364  and  _365
REMARK  146  A    between atoms: _365  and  _366
REMARK  147  A    between atoms: _366  and  _367
REMARK  148  A    between atoms: _376  and  _378
REMARK  149  A    between atoms: _378  and  _379
REMARK  150  A    between atoms: _378  and  _381
REMARK  151  A    between atoms: _381  and  _382
REMARK  152  A    between atoms: _384  and  _386
REMARK  153  A    between atoms: _386  and  _387
REMARK  154  A    between atoms: _389  and  _391
REMARK  155  A    between atoms: _391  and  _392
REMARK  156  A    between atoms: _391  and  _394
REMARK  157  A    between atoms: _394  and  _395
REMARK  158  A    between atoms: _398  and  _400
REMARK  159  A    between atoms: _400  and  _401
REMARK  160  A    between atoms: _404  and  _406
REMARK  161  A    between atoms: _406  and  _407
REMARK  162  A    between atoms: _406  and  _409
REMARK  163  A    between atoms: _409  and  _410
REMARK  164  A    between atoms: _413  and  _415
REMARK  165  A    between atoms: _415  and  _416
REMARK  166  A    between atoms: _415  and  _418
REMARK  167  A    between atoms: _420  and  _422
REMARK  168  A    between atoms: _422  and  _423
REMARK  169  A    between atoms: _422  and  _425
REMARK  170  A    between atoms: _425  and  _426
REMARK  171  A    between atoms: _426  and  _427
REMARK  172  A    between atoms: _427  and  _428
REMARK  173  A    between atoms: _437  and  _439
REMARK  174  A    between atoms: _439  and  _440
REMARK  175  A    between atoms: _443  and  _445
REMARK  176  A    between atoms: _445  and  _446
REMARK  177  A    between atoms: _445  and  _448
REMARK  178  A    between atoms: _448  and  _449
REMARK  179  A    between atoms: _449  and  _450
REMARK  180  A    between atoms: _455  and  _457
REMARK  181  A    between atoms: _457  and  _458
REMARK  182  A    between atoms: _457  and  _460
REMARK  183  A    between atoms: _460  and  _461
REMARK  184  A    between atoms: _464  and  _466
REMARK  185  A    between atoms: _466  and  _467
REMARK  186  A    between atoms: _466  and  _469
REMARK  187  A    between atoms: _469  and  _470
REMARK  188  A    between atoms: _470  and  _471
REMARK  189  A    between atoms: _471  and  _472
REMARK  190  A    between atoms: _481  and  _483
REMARK  191  A    between atoms: _483  and  _484
REMARK  192  A    between atoms: _486  and  _488
REMARK  193  A    between atoms: _488  and  _489
REMARK  194  A    between atoms: _488  and  _491
REMARK  195  A    between atoms: _491  and  _492
REMARK  196  A    between atoms: _495  and  _497
REMARK  197  A    between atoms: _497  and  _498
REMARK  198  A    between atoms: _500  and  _502
REMARK  199  A    between atoms: _502  and  _503
REMARK  200  A    between atoms: _505  and  _507
REMARK  201  A    between atoms: _507  and  _508
REMARK  202  A    between atoms: _507  and  _510
REMARK  203  A    between atoms: _510  and  _511
REMARK  204  A    between atoms: _516  and  _518
REMARK  205  A    between atoms: _518  and  _519
REMARK  206  A    between atoms: _521  and  _523
REMARK  207  A    between atoms: _523  and  _524
REMARK  208  A    between atoms: _523  and  _526
REMARK  209  A    between atoms: _526  and  _527
REMARK  210  A    between atoms: _529  and  _531
REMARK  211  A    between atoms: _531  and  _532
REMARK  212  A    between atoms: _531  and  _534
REMARK  213  A    between atoms: _534  and  _535
REMARK  214  A    between atoms: _537  and  _539
REMARK  215  A    between atoms: _539  and  _540
REMARK  216  A    between atoms: _542  and  _544
REMARK  217  A    between atoms: _544  and  _545
REMARK  218  A    between atoms: _547  and  _549
REMARK  219  A    between atoms: _549  and  _550
REMARK  220  A    between atoms: _549  and  _552
REMARK  221  A    between atoms: _552  and  _553
REMARK                            x       y       z     vdW  Elec       q    Type
REMARK                         _______ _______ _______ _____ _____    ______ ____
ROOT
ATOM      1  C   ARG A   1      17.038   0.137  33.237  0.00  0.00    +0.238 C 
ATOM      2  N   ALA A   2      16.473   0.867  34.196  0.00  0.00    -0.297 N 
ATOM      3  H   ALA A   2      16.934   1.727  34.557  0.00  0.00    +0.150 HD
ATOM      4  O   ARG A   1      16.486  -0.860  32.773  0.00  0.00    -0.274 OA
ENDROOT
BRANCH   2   5
ATOM      5  CA  ALA A   2      15.166   0.416  34.733  0.00  0.00    +0.149 C 
ATOM      6  CB  ALA A   2      14.803   1.211  36.021  0.00  0.00    +0.031 C 
BRANCH   5   7
ATOM      7  C   ALA A   2      14.072   0.536  33.690  0.00  0.00    +0.241 C 
ATOM      8  O   ALA A   2      13.180  -0.296  33.618  0.00  0.00    -0.273 OA
ATOM      9  N   HIS A   3      14.143   1.589  32.889  0.00  0.00    -0.298 N 
ATOM     10  H   HIS A   3      14.925   2.261  33.026  0.00  0.00    +0.150 HD
BRANCH   9  11
ATOM     11  CA  HIS A   3      13.176   1.856  31.820  0.00  0.00    +0.143 C 
BRANCH  11  12
ATOM     12  C   HIS A   3      13.825   2.377  30.578  0.00  0.00    +0.227 C 
ATOM     13  O   HIS A   3      14.929   2.958  30.622  0.00  0.00    -0.286 OA
ENDBRANCH  11  12
BRANCH  11  14
ATOM     14  CB  HIS A   3      12.232   2.973  32.279  0.00  0.00    +0.075 C 
BRANCH  14  15
ATOM     15  CG  HIS A   3      11.331   2.568  33.398  0.00  0.00    +0.082 A 
ATOM     16  CD2 HIS A   3      11.451   2.687  34.740  0.00  0.00    +0.115 A 
ATOM     17  NE2 HIS A   3      10.321   2.134  35.301  0.00  0.00    -0.221 NA
ATOM     18  CE1 HIS A   3       9.535   1.691  34.328  0.00  0.00    +0.199 A 
ATOM     19  ND1 HIS A   3      10.119   1.944  33.168  0.00  0.00    -0.227 NA
ENDBRANCH  14  15
ENDBRANCH  11  14
ENDBRANCH   9  11
ENDBRANCH   5   7
ENDBRANCH   2   5
BRANCH   1  20
ATOM     20  CA  ARG A   1      18.344   0.659  32.628  0.00  0.00    +0.145 C 
BRANCH  20  21
ATOM     21  N   ARG A   1      19.235  -0.492  32.510  0.00  0.00    -0.238 NA
ATOM     22  H   ARG A   1      19.372  -0.917  31.571  0.00  0.00    +0.142 HD
ENDBRANCH  20  21
BRANCH  20  23
ATOM     23  CB  ARG A   1      18.053   1.271  31.263  0.00  0.00    +0.030 C 
BRANCH  23  24
ATOM     24  CG  ARG A   1      19.235   2.063  30.671  0.00  0.00    +0.045 C 
BRANCH  24  25
ATOM     25  CD  ARG A   1      18.885   2.538  29.278  0.00  0.00    +0.174 C 
BRANCH  25  26
ATOM     26  NE  ARG A   1      19.071   1.474  28.311  0.00  0.00    -0.265 N 
ATOM     27  HE  ARG A   1      18.254   0.896  28.029  0.00  0.00    +0.259 HD
ATOM     28  CZ  ARG A   1      20.264   1.220  27.776  0.00  0.00    +0.342 C 
ATOM     29  NH2 ARG A   1      21.297   1.948  28.144  0.00  0.00    -0.292 N 
ATOM     30 HH21 ARG A   1      21.175   2.708  28.843  0.00  0.00    +0.255 HD
ATOM     31 HH22 ARG A   1      22.235   1.763  27.736  0.00  0.00    +0.255 HD
ATOM     32  NH1 ARG A   1      20.424   0.245  26.882  0.00  0.00    -0.292 N 
ATOM     33 HH11 ARG A   1      19.610  -0.333  26.591  0.00  0.00    +0.255 HD
ATOM     34 HH12 ARG A   1      21.363   0.062  26.475  0.00  0.00    +0.255 HD
ENDBRANCH  25  26
ENDBRANCH  24  25
ENDBRANCH  23  24
ENDBRANCH  20  23
ENDBRANCH   1  20
TORSDOF 12
REMARK  Name = ../refined-set-2016/2py4/2py4_pocket.pdb
REMARK  221 active torsions:
REMARK  status: ('A' for Active; 'I' for Inactive)
REMARK    1  A    between atoms: _1  and  _3
REMARK    2  A    between atoms: _3  and  _4
REMARK    3  A    between atoms: _3  and  _6
REMARK    4  A    between atoms: _6  and  _7
REMARK    5  A    between atoms: _10  and  _12
REMARK    6  A    between atoms: _12  and  _13
REMARK    7  A    between atoms: _12  and  _15
REMARK    8  A    between atoms: _15  and  _16
REMARK    9  A    between atoms: _19  and  _21
REMARK   10  A    between atoms: _21  and  _22
REMARK   11  A    between atoms: _21  and  _24
REMARK   12  A    between atoms: _27  and  _29
REMARK   13  A    between atoms: _29  and  _30
REMARK   14  A    between atoms: _29  and  _32
REMARK   15  A    between atoms: _32  and  _33
REMARK   16  A    between atoms: _36  and  _38
REMARK   17  A    between atoms: _38  and  _39
REMARK   18  A    between atoms: _38  and  _41
REMARK   19  A    between atoms: _44  and  _46
REMARK   20  A    between atoms: _46  and  _47
REMARK   21  A    between atoms: _46  and  _49
REMARK   22  A    between atoms: _52  and  _54
REMARK   23  A    between atoms: _54  and  _55
REMARK   24  A    between atoms: _54  and  _57
REMARK   25  A    between atoms: _60  and  _62
REMARK   26  A    between atoms: _62  and  _63
REMARK   27  A    between atoms: _62  and  _65
REMARK   28  A    between atoms: _68  and  _70
REMARK   29  A    between atoms: _70  and  _71
REMARK   30  A    between atoms: _73  and  _75
REMARK   31  A    between atoms: _75  and  _76
REMARK   32  A    between atoms: _75  and  _78
REMARK   33  A    between atoms: _78  and  _79
REMARK   34  A    between atoms: _82  and  _84
REMARK   35  A    between atoms: _84  and  _85
REMARK   36  A    between atoms: _84  and  _87
REMARK   37  A    between atoms: _90  and  _92
REMARK   38  A    between atoms: _92  and  _93
REMARK   39  A    between atoms: _92  and  _95
REMARK   40  A    between atoms: _95  and  _96
REMARK   41  A    between atoms: _101  and  _103
REMARK   42  A    between atoms: _103  and  _104
REMARK   43  A    between atoms: _103  and  _106
REMARK   44  A    between atoms: _106  and  _107
REMARK   45  A    between atoms: _110  and  _112
REMARK   46  A    between atoms: _112  and  _113
REMARK   47  A    between atoms: _112  and  _115
REMARK   48  A    between atoms: _118  and  _120
REMARK   49  A    between atoms: _120  and  _121
REMARK   50  A    between atoms: _120  and  _123
REMARK   51  A    between atoms: _123  and  _124
REMARK   52  A    between atoms: _129  and  _131
REMARK   53  A    between atoms: _131  and  _132
REMARK   54  A    between atoms: _131  and  _134
REMARK   55  A    between atoms: _134  and  _135
REMARK   56  A    between atoms: _138  and  _139
REMARK   57  A    between atoms: _144  and  _146
REMARK   58  A    between atoms: _146  and  _147
REMARK   59  A    between atoms: _149  and  _151
REMARK   60  A    between atoms: _151  and  _152
REMARK   61  A    between atoms: _151  and  _154
REMARK   62  A    between atoms: _154  and  _155
REMARK   63  A    between atoms: _158  and  _160
REMARK   64  A    between atoms: _160  and  _161
REMARK   65  A    between atoms: _160  and  _163
REMARK   66  A    between atoms: _163  and  _164
REMARK   67  A    between atoms: _167  and  _169
REMARK   68  A    between atoms: _169  and  _170
REMARK   69  A    between atoms: _169  and  _172
REMARK   70  A    between atoms: _172  and  _173
REMARK   71  A    between atoms: _176  and  _178
REMARK   72  A    between atoms: _178  and  _179
REMARK   73  A    between atoms: _182  and  _184
REMARK   74  A    between atoms: _184  and  _185
REMARK   75  A    between atoms: _187  and  _189
REMARK   76  A    between atoms: _189  and  _190
REMARK   77  A    between atoms: _189  and  _192
REMARK   78  A    between atoms: _192  and  _193
REMARK   79  A    between atoms: _198  and  _199
REMARK   80  A    between atoms: _201  and  _203
REMARK   81  A    between atoms: _203  and  _204
REMARK   82  A    between atoms: _203  and  _206
REMARK   83  A    between atoms: _206  and  _207
REMARK   84  A    between atoms: _207  and  _208
REMARK   85  A    between atoms: _208  and  _209
REMARK   86  A    between atoms: _218  and  _220
REMARK   87  A    between atoms: _220  and  _221
REMARK   88  A    between atoms: _223  and  _225
REMARK   89  A    between atoms: _225  and  _226
REMARK   90  A    between atoms: _225  and  _228
REMARK   91  A    between atoms: _228  and  _229
REMARK   92  A    between atoms: _229  and  _230
REMARK   93  A    between atoms: _233  and  _235
REMARK   94  A    between atoms: _235  and  _236
REMARK   95  A    between atoms: _235  and  _238
REMARK   96  A    between atoms: _238  and  _239
REMARK   97  A    between atoms: _242  and  _244
REMARK   98  A    between atoms: _244  and  _245
REMARK   99  A    between atoms: _244  and  _247
REMARK  100  A    between atoms: _247  and  _248
REMARK  101  A    between atoms: _248  and  _249
REMARK  102  A    between atoms: _249  and  _250
REMARK  103  A    between atoms: _250  and  _251
REMARK  104  A    between atoms: _255  and  _257
REMARK  105  A    between atoms: _257  and  _258
REMARK  106  A    between atoms: _257  and  _260
REMARK  107  A    between atoms: _263  and  _265
REMARK  108  A    between atoms: _265  and  _266
REMARK  109  A    between atoms: _269  and  _271
REMARK  110  A    between atoms: _271  and  _272
REMARK  111  A    between atoms: _271  and  _274
REMARK  112  A    between atoms: _274  and  _275
REMARK  113  A    between atoms: _278  and  _280
REMARK  114  A    between atoms: _280  and  _281
REMARK  115  A    between atoms: _280  and  _283
REMARK  116  A    between atoms: _283  and  _284
REMARK  117  A    between atoms: _284  and  _285
REMARK  118  A    between atoms: _285  and  _286
REMARK  119  A    between atoms: _295  and  _297
REMARK  120  A    between atoms: _297  and  _298
REMARK  121  A    between atoms: _301  and  _303
REMARK  122  A    between atoms: _303  and  _304
REMARK  123  A    between atoms: _303  and  _306
REMARK  124  A    between atoms: _306  and  _307
REMARK  125  A    between atoms: _312  and  _314
REMARK  126  A    between atoms: _314  and  _315
REMARK  127  A    between atoms: _314  and  _317
REMARK  128  A    between atoms: _317  and  _318
REMARK  129  A    between atoms: _321  and  _323
REMARK  130  A    between atoms: _323  and  _324
REMARK  131  A    between atoms: _327  and  _329
REMARK  132  A    between atoms: _329  and  _330
REMARK  133  A    between atoms: _332  and  _334
REMARK  134  A    between atoms: _334  and  _335
REMARK  135  A    between atoms: _334  and  _337
REMARK  136  A    between atoms: _337  and  _338
REMARK  137  A    between atoms: _341  and  _343
REMARK  138  A    between atoms: _343  and  _344
REMARK  139  A    between atoms: _343  and  _346
REMARK  140  A    between atoms: _346  and  _347
REMARK  141  A    between atoms: _353  and  _354
REMARK  142  A    between atoms: _359  and  _361
REMARK  143  A    between atoms: _361  and  _362
REMARK  144  A    between atoms: _361  and  _364
REMARK  145  A    between atoms: _364  and  _365
REMARK  146  A    between atoms: _365  and  _366
REMARK  147  A    between atoms: _366  and  _367
REMARK  148  A    between atoms: _376  and  _378
REMARK  149  A    between atoms: _378  and  _379
REMARK  150  A    between atoms: _378  and  _381
REMARK  151  A    between atoms: _381  and  _382
REMARK  152  A    between atoms: _384  and  _386
REMARK  153  A    between atoms: _386  and  _387
REMARK  154  A    between atoms: _389  and  _391
REMARK  155  A    between atoms: _391  and  _392
REMARK  156  A    between atoms: _391  and  _394
REMARK  157  A    between atoms: _394  and  _395
REMARK  158  A    between atoms: _398  and  _400
REMARK  159  A    between atoms: _400  and  _401
REMARK  160  A    between atoms: _404  and  _406
REMARK  161  A    between atoms: _406  and  _407
REMARK  162  A    between atoms: _406  and  _409
REMARK  163  A    between atoms: _409  and  _410
REMARK  164  A    between atoms: _413  and  _415
REMARK  165  A    between atoms: _415  and  _416
REMARK  166  A    between atoms: _415  and  _418
REMARK  167  A    between atoms: _420  and  _422
REMARK  168  A    between atoms: _422  and  _423
REMARK  169  A    between atoms: _422  and  _425
REMARK  170  A    between atoms: _425  and  _426
REMARK  171  A    between atoms: _426  and  _427
REMARK  172  A    between atoms: _427  and  _428
REMARK  173  A    between atoms: _437  and  _439
REMARK  174  A    between atoms: _439  and  _440
REMARK  175  A    between atoms: _443  and  _445
REMARK  176  A    between atoms: _445  and  _446
REMARK  177  A    between atoms: _445  and  _448
REMARK  178  A    between atoms: _448  and  _449
REMARK  179  A    between atoms: _449  and  _450
REMARK  180  A    between atoms: _455  and  _457
REMARK  181  A    between atoms: _457  and  _458
REMARK  182  A    between atoms: _457  and  _460
REMARK  183  A    between atoms: _460  and  _461
REMARK  184  A    between atoms: _464  and  _466
REMARK  185  A    between atoms: _466  and  _467
REMARK  186  A    between atoms: _466  and  _469
REMARK  187  A    between atoms: _469  and  _470
REMARK  188  A    between atoms: _470  and  _471
REMARK  189  A    between atoms: _471  and  _472
REMARK  190  A    between atoms: _481  and  _483
REMARK  191  A    between atoms: _483  and  _484
REMARK  192  A    between atoms: _486  and  _488
REMARK  193  A    between atoms: _488  and  _489
REMARK  194  A    between atoms: _488  and  _491
REMARK  195  A    between atoms: _491  and  _492
REMARK  196  A    between atoms: _495  and  _497
REMARK  197  A    between atoms: _497  and  _498
REMARK  198  A    between atoms: _500  and  _502
REMARK  199  A    between atoms: _502  and  _503
REMARK  200  A    between atoms: _505  and  _507
REMARK  201  A    between atoms: _507  and  _508
REMARK  202  A    between atoms: _507  and  _510
REMARK  203  A    between atoms: _510  and  _511
REMARK  204  A    between atoms: _516  and  _518
REMARK  205  A    between atoms: _518  and  _519
REMARK  206  A    between atoms: _521  and  _523
REMARK  207  A    between atoms: _523  and  _524
REMARK  208  A    between atoms: _523  and  _526
REMARK  209  A    between atoms: _526  and  _527
REMARK  210  A    between atoms: _529  and  _531
REMARK  211  A    between atoms: _531  and  _532
REMARK  212  A    between atoms: _531  and  _534
REMARK  213  A    between atoms: _534  and  _535
REMARK  214  A    between atoms: _537  and  _539
REMARK  215  A    between atoms: _539  and  _540
REMARK  216  A    between atoms: _542  and  _544
REMARK  217  A    between atoms: _544  and  _545
REMARK  218  A    between atoms: _547  and  _549
REMARK  219  A    between atoms: _549  and  _550
REMARK  220  A    between atoms: _549  and  _552
REMARK  221  A    between atoms: _552  and  _553
REMARK                            x       y       z     vdW  Elec       q    Type
REMARK                         _______ _______ _______ _____ _____    ______ ____
ROOT
ATOM      1  C   ASP A   1      18.201   6.348  31.054  0.00  0.00    +0.239 C 
ATOM      2  N   ALA A   2      18.699   7.347  31.788  0.00  0.00    -0.297 N 
ATOM      3  H   ALA A   2      18.151   7.756  32.572  0.00  0.00    +0.150 HD
ATOM      4  O   ASP A   1      18.900   5.685  30.243  0.00  0.00    -0.274 OA
ENDROOT
BRANCH   2   5
ATOM      5  CA  ALA A   2      20.029   7.851  31.464  0.00  0.00    +0.149 C 
ATOM      6  CB  ALA A   2      20.215   9.187  32.119  0.00  0.00    +0.031 C 
BRANCH   5   7
ATOM      7  C   ALA A   2      21.156   6.924  31.852  0.00  0.00    +0.241 C 
ATOM      8  N   GLY A   3      20.914   6.164  32.904  0.00  0.00    -0.296 N 
ATOM      9  H   GLY A   3      19.944   6.117  33.276  0.00  0.00    +0.150 HD
ATOM     10  O   ALA A   2      22.237   6.958  31.243  0.00  0.00    -0.273 OA
BRANCH   8  11
ATOM     11  CA  GLY A   3      21.947   5.397  33.556  0.00  0.00    +0.163 C 
BRANCH  11  12
ATOM     12  C   GLY A   3      21.576   3.917  33.619  0.00  0.00    +0.229 C 
ATOM     13  O   GLY A   3      20.415   3.531  33.531  0.00  0.00    -0.286 OA
ENDBRANCH  11  12
ENDBRANCH   8  11
ENDBRANCH   5   7
ENDBRANCH   2   5
BRANCH   1  14
ATOM     14  CA  ASP A   1      16.749   6.028  31.317  0.00  0.00    +0.156 C 
BRANCH  14  15
ATOM     15  N   ASP A   1      16.096   5.599  30.077  0.00  0.00    -0.238 NA
ATOM     16  H   ASP A   1      15.628   4.672  30.024  0.00  0.00    +0.142 HD
ENDBRANCH  14  15
BRANCH  14  17
ATOM     17  CB  ASP A   1      16.728   4.980  32.420  0.00  0.00    +0.140 C 
BRANCH  17  18
ATOM     18  CG  ASP A   1      15.363   4.890  33.155  0.00  0.00    +0.367 C 
ATOM     19  OD2 ASP A   1      15.279   3.988  34.037  0.00  0.00    -0.246 OA
ATOM     20  OD1 ASP A   1      14.459   5.789  32.925  0.00  0.00    -0.246 OA
ENDBRANCH  17  18
ENDBRANCH  14  17
ENDBRANCH   1  14
TORSDOF 8
REMARK  Name = ../refined-set-2016/2py4/2py4_pocket.pdb
REMARK  221 active torsions:
REMARK  status: ('A' for Active; 'I' for Inactive)
REMARK    1  A    between atoms: _1  and  _3
REMARK    2  A    between atoms: _3  and  _4
REMARK    3  A    between atoms: _3  and  _6
REMARK    4  A    between atoms: _6  and  _7
REMARK    5  A    between atoms: _10  and  _12
REMARK    6  A    between atoms: _12  and  _13
REMARK    7  A    between atoms: _12  and  _15
REMARK    8  A    between atoms: _15  and  _16
REMARK    9  A    between atoms: _19  and  _21
REMARK   10  A    between atoms: _21  and  _22
REMARK   11  A    between atoms: _21  and  _24
REMARK   12  A    between atoms: _27  and  _29
REMARK   13  A    between atoms: _29  and  _30
REMARK   14  A    between atoms: _29  and  _32
REMARK   15  A    between atoms: _32  and  _33
REMARK   16  A    between atoms: _36  and  _38
REMARK   17  A    between atoms: _38  and  _39
REMARK   18  A    between atoms: _38  and  _41
REMARK   19  A    between atoms: _44  and  _46
REMARK   20  A    between atoms: _46  and  _47
REMARK   21  A    between atoms: _46  and  _49
REMARK   22  A    between atoms: _52  and  _54
REMARK   23  A    between atoms: _54  and  _55
REMARK   24  A    between atoms: _54  and  _57
REMARK   25  A    between atoms: _60  and  _62
REMARK   26  A    between atoms: _62  and  _63
REMARK   27  A    between atoms: _62  and  _65
REMARK   28  A    between atoms: _68  and  _70
REMARK   29  A    between atoms: _70  and  _71
REMARK   30  A    between atoms: _73  and  _75
REMARK   31  A    between atoms: _75  and  _76
REMARK   32  A    between atoms: _75  and  _78
REMARK   33  A    between atoms: _78  and  _79
REMARK   34  A    between atoms: _82  and  _84
REMARK   35  A    between atoms: _84  and  _85
REMARK   36  A    between atoms: _84  and  _87
REMARK   37  A    between atoms: _90  and  _92
REMARK   38  A    between atoms: _92  and  _93
REMARK   39  A    between atoms: _92  and  _95
REMARK   40  A    between atoms: _95  and  _96
REMARK   41  A    between atoms: _101  and  _103
REMARK   42  A    between atoms: _103  and  _104
REMARK   43  A    between atoms: _103  and  _106
REMARK   44  A    between atoms: _106  and  _107
REMARK   45  A    between atoms: _110  and  _112
REMARK   46  A    between atoms: _112  and  _113
REMARK   47  A    between atoms: _112  and  _115
REMARK   48  A    between atoms: _118  and  _120
REMARK   49  A    between atoms: _120  and  _121
REMARK   50  A    between atoms: _120  and  _123
REMARK   51  A    between atoms: _123  and  _124
REMARK   52  A    between atoms: _129  and  _131
REMARK   53  A    between atoms: _131  and  _132
REMARK   54  A    between atoms: _131  and  _134
REMARK   55  A    between atoms: _134  and  _135
REMARK   56  A    between atoms: _138  and  _139
REMARK   57  A    between atoms: _144  and  _146
REMARK   58  A    between atoms: _146  and  _147
REMARK   59  A    between atoms: _149  and  _151
REMARK   60  A    between atoms: _151  and  _152
REMARK   61  A    between atoms: _151  and  _154
REMARK   62  A    between atoms: _154  and  _155
REMARK   63  A    between atoms: _158  and  _160
REMARK   64  A    between atoms: _160  and  _161
REMARK   65  A    between atoms: _160  and  _163
REMARK   66  A    between atoms: _163  and  _164
REMARK   67  A    between atoms: _167  and  _169
REMARK   68  A    between atoms: _169  and  _170
REMARK   69  A    between atoms: _169  and  _172
REMARK   70  A    between atoms: _172  and  _173
REMARK   71  A    between atoms: _176  and  _178
REMARK   72  A    between atoms: _178  and  _179
REMARK   73  A    between atoms: _182  and  _184
REMARK   74  A    between atoms: _184  and  _185
REMARK   75  A    between atoms: _187  and  _189
REMARK   76  A    between atoms: _189  and  _190
REMARK   77  A    between atoms: _189  and  _192
REMARK   78  A    between atoms: _192  and  _193
REMARK   79  A    between atoms: _198  and  _199
REMARK   80  A    between atoms: _201  and  _203
REMARK   81  A    between atoms: _203  and  _204
REMARK   82  A    between atoms: _203  and  _206
REMARK   83  A    between atoms: _206  and  _207
REMARK   84  A    between atoms: _207  and  _208
REMARK   85  A    between atoms: _208  and  _209
REMARK   86  A    between atoms: _218  and  _220
REMARK   87  A    between atoms: _220  and  _221
REMARK   88  A    between atoms: _223  and  _225
REMARK   89  A    between atoms: _225  and  _226
REMARK   90  A    between atoms: _225  and  _228
REMARK   91  A    between atoms: _228  and  _229
REMARK   92  A    between atoms: _229  and  _230
REMARK   93  A    between atoms: _233  and  _235
REMARK   94  A    between atoms: _235  and  _236
REMARK   95  A    between atoms: _235  and  _238
REMARK   96  A    between atoms: _238  and  _239
REMARK   97  A    between atoms: _242  and  _244
REMARK   98  A    between atoms: _244  and  _245
REMARK   99  A    between atoms: _244  and  _247
REMARK  100  A    between atoms: _247  and  _248
REMARK  101  A    between atoms: _248  and  _249
REMARK  102  A    between atoms: _249  and  _250
REMARK  103  A    between atoms: _250  and  _251
REMARK  104  A    between atoms: _255  and  _257
REMARK  105  A    between atoms: _257  and  _258
REMARK  106  A    between atoms: _257  and  _260
REMARK  107  A    between atoms: _263  and  _265
REMARK  108  A    between atoms: _265  and  _266
REMARK  109  A    between atoms: _269  and  _271
REMARK  110  A    between atoms: _271  and  _272
REMARK  111  A    between atoms: _271  and  _274
REMARK  112  A    between atoms: _274  and  _275
REMARK  113  A    between atoms: _278  and  _280
REMARK  114  A    between atoms: _280  and  _281
REMARK  115  A    between atoms: _280  and  _283
REMARK  116  A    between atoms: _283  and  _284
REMARK  117  A    between atoms: _284  and  _285
REMARK  118  A    between atoms: _285  and  _286
REMARK  119  A    between atoms: _295  and  _297
REMARK  120  A    between atoms: _297  and  _298
REMARK  121  A    between atoms: _301  and  _303
REMARK  122  A    between atoms: _303  and  _304
REMARK  123  A    between atoms: _303  and  _306
REMARK  124  A    between atoms: _306  and  _307
REMARK  125  A    between atoms: _312  and  _314
REMARK  126  A    between atoms: _314  and  _315
REMARK  127  A    between atoms: _314  and  _317
REMARK  128  A    between atoms: _317  and  _318
REMARK  129  A    between atoms: _321  and  _323
REMARK  130  A    between atoms: _323  and  _324
REMARK  131  A    between atoms: _327  and  _329
REMARK  132  A    between atoms: _329  and  _330
REMARK  133  A    between atoms: _332  and  _334
REMARK  134  A    between atoms: _334  and  _335
REMARK  135  A    between atoms: _334  and  _337
REMARK  136  A    between atoms: _337  and  _338
REMARK  137  A    between atoms: _341  and  _343
REMARK  138  A    between atoms: _343  and  _344
REMARK  139  A    between atoms: _343  and  _346
REMARK  140  A    between atoms: _346  and  _347
REMARK  141  A    between atoms: _353  and  _354
REMARK  142  A    between atoms: _359  and  _361
REMARK  143  A    between atoms: _361  and  _362
REMARK  144  A    between atoms: _361  and  _364
REMARK  145  A    between atoms: _364  and  _365
REMARK  146  A    between atoms: _365  and  _366
REMARK  147  A    between atoms: _366  and  _367
REMARK  148  A    between atoms: _376  and  _378
REMARK  149  A    between atoms: _378  and  _379
REMARK  150  A    between atoms: _378  and  _381
REMARK  151  A    between atoms: _381  and  _382
REMARK  152  A    between atoms: _384  and  _386
REMARK  153  A    between atoms: _386  and  _387
REMARK  154  A    between atoms: _389  and  _391
REMARK  155  A    between atoms: _391  and  _392
REMARK  156  A    between atoms: _391  and  _394
REMARK  157  A    between atoms: _394  and  _395
REMARK  158  A    between atoms: _398  and  _400
REMARK  159  A    between atoms: _400  and  _401
REMARK  160  A    between atoms: _404  and  _406
REMARK  161  A    between atoms: _406  and  _407
REMARK  162  A    between atoms: _406  and  _409
REMARK  163  A    between atoms: _409  and  _410
REMARK  164  A    between atoms: _413  and  _415
REMARK  165  A    between atoms: _415  and  _416
REMARK  166  A    between atoms: _415  and  _418
REMARK  167  A    between atoms: _420  and  _422
REMARK  168  A    between atoms: _422  and  _423
REMARK  169  A    between atoms: _422  and  _425
REMARK  170  A    between atoms: _425  and  _426
REMARK  171  A    between atoms: _426  and  _427
REMARK  172  A    between atoms: _427  and  _428
REMARK  173  A    between atoms: _437  and  _439
REMARK  174  A    between atoms: _439  and  _440
REMARK  175  A    between atoms: _443  and  _445
REMARK  176  A    between atoms: _445  and  _446
REMARK  177  A    between atoms: _445  and  _448
REMARK  178  A    between atoms: _448  and  _449
REMARK  179  A    between atoms: _449  and  _450
REMARK  180  A    between atoms: _455  and  _457
REMARK  181  A    between atoms: _457  and  _458
REMARK  182  A    between atoms: _457  and  _460
REMARK  183  A    between atoms: _460  and  _461
REMARK  184  A    between atoms: _464  and  _466
REMARK  185  A    between atoms: _466  and  _467
REMARK  186  A    between atoms: _466  and  _469
REMARK  187  A    between atoms: _469  and  _470
REMARK  188  A    between atoms: _470  and  _471
REMARK  189  A    between atoms: _471  and  _472
REMARK  190  A    between atoms: _481  and  _483
REMARK  191  A    between atoms: _483  and  _484
REMARK  192  A    between atoms: _486  and  _488
REMARK  193  A    between atoms: _488  and  _489
REMARK  194  A    between atoms: _488  and  _491
REMARK  195  A    between atoms: _491  and  _492
REMARK  196  A    between atoms: _495  and  _497
REMARK  197  A    between atoms: _497  and  _498
REMARK  198  A    between atoms: _500  and  _502
REMARK  199  A    between atoms: _502  and  _503
REMARK  200  A    between atoms: _505  and  _507
REMARK  201  A    between atoms: _507  and  _508
REMARK  202  A    between atoms: _507  and  _510
REMARK  203  A    between atoms: _510  and  _511
REMARK  204  A    between atoms: _516  and  _518
REMARK  205  A    between atoms: _518  and  _519
REMARK  206  A    between atoms: _521  and  _523
REMARK  207  A    between atoms: _523  and  _524
REMARK  208  A    between atoms: _523  and  _526
REMARK  209  A    between atoms: _526  and  _527
REMARK  210  A    between atoms: _529  and  _531
REMARK  211  A    between atoms: _531  and  _532
REMARK  212  A    between atoms: _531  and  _534
REMARK  213  A    between atoms: _534  and  _535
REMARK  214  A    between atoms: _537  and  _539
REMARK  215  A    between atoms: _539  and  _540
REMARK  216  A    between atoms: _542  and  _544
REMARK  217  A    between atoms: _544  and  _545
REMARK  218  A    between atoms: _547  and  _549
REMARK  219  A    between atoms: _549  and  _550
REMARK  220  A    between atoms: _549  and  _552
REMARK  221  A    between atoms: _552  and  _553
REMARK                            x       y       z     vdW  Elec       q    Type
REMARK                         _______ _______ _______ _____ _____    ______ ____
ROOT
ATOM      1  CA  ASP A   1      22.161   0.738  37.724  0.00  0.00    +0.144 C 
ENDROOT
BRANCH   1   2
ATOM      2  N   ASP A   1      21.970   0.755  36.268  0.00  0.00    -0.239 NA
ATOM      3  H   ASP A   1      21.232   0.183  35.811  0.00  0.00    +0.142 HD
ENDBRANCH   1   2
BRANCH   1   4
ATOM      4  C   ASP A   1      23.313  -0.183  38.100  0.00  0.00    +0.225 C 
ATOM      5  O   ASP A   1      23.408  -1.298  37.621  0.00  0.00    -0.287 OA
ENDBRANCH   1   4
BRANCH   1   6
ATOM      6  CB  ASP A   1      20.890   0.246  38.453  0.00  0.00    +0.139 C 
BRANCH   6   7
ATOM      7  CG  ASP A   1      19.737   1.245  38.357  0.00  0.00    +0.367 C 
ATOM      8  OD2 ASP A   1      18.634   0.822  38.747  0.00  0.00    -0.246 OA
ATOM      9  OD1 ASP A   1      19.980   2.406  37.911  0.00  0.00    -0.246 OA
ENDBRANCH   6   7
ENDBRANCH   1   6
TORSDOF 4
REMARK  Name = ../refined-set-2016/2py4/2py4_pocket.pdb
REMARK  221 active torsions:
REMARK  status: ('A' for Active; 'I' for Inactive)
REMARK    1  A    between atoms: _1  and  _3
REMARK    2  A    between atoms: _3  and  _4
REMARK    3  A    between atoms: _3  and  _6
REMARK    4  A    between atoms: _6  and  _7
REMARK    5  A    between atoms: _10  and  _12
REMARK    6  A    between atoms: _12  and  _13
REMARK    7  A    between atoms: _12  and  _15
REMARK    8  A    between atoms: _15  and  _16
REMARK    9  A    between atoms: _19  and  _21
REMARK   10  A    between atoms: _21  and  _22
REMARK   11  A    between atoms: _21  and  _24
REMARK   12  A    between atoms: _27  and  _29
REMARK   13  A    between atoms: _29  and  _30
REMARK   14  A    between atoms: _29  and  _32
REMARK   15  A    between atoms: _32  and  _33
REMARK   16  A    between atoms: _36  and  _38
REMARK   17  A    between atoms: _38  and  _39
REMARK   18  A    between atoms: _38  and  _41
REMARK   19  A    between atoms: _44  and  _46
REMARK   20  A    between atoms: _46  and  _47
REMARK   21  A    between atoms: _46  and  _49
REMARK   22  A    between atoms: _52  and  _54
REMARK   23  A    between atoms: _54  and  _55
REMARK   24  A    between atoms: _54  and  _57
REMARK   25  A    between atoms: _60  and  _62
REMARK   26  A    between atoms: _62  and  _63
REMARK   27  A    between atoms: _62  and  _65
REMARK   28  A    between atoms: _68  and  _70
REMARK   29  A    between atoms: _70  and  _71
REMARK   30  A    between atoms: _73  and  _75
REMARK   31  A    between atoms: _75  and  _76
REMARK   32  A    between atoms: _75  and  _78
REMARK   33  A    between atoms: _78  and  _79
REMARK   34  A    between atoms: _82  and  _84
REMARK   35  A    between atoms: _84  and  _85
REMARK   36  A    between atoms: _84  and  _87
REMARK   37  A    between atoms: _90  and  _92
REMARK   38  A    between atoms: _92  and  _93
REMARK   39  A    between atoms: _92  and  _95
REMARK   40  A    between atoms: _95  and  _96
REMARK   41  A    between atoms: _101  and  _103
REMARK   42  A    between atoms: _103  and  _104
REMARK   43  A    between atoms: _103  and  _106
REMARK   44  A    between atoms: _106  and  _107
REMARK   45  A    between atoms: _110  and  _112
REMARK   46  A    between atoms: _112  and  _113
REMARK   47  A    between atoms: _112  and  _115
REMARK   48  A    between atoms: _118  and  _120
REMARK   49  A    between atoms: _120  and  _121
REMARK   50  A    between atoms: _120  and  _123
REMARK   51  A    between atoms: _123  and  _124
REMARK   52  A    between atoms: _129  and  _131
REMARK   53  A    between atoms: _131  and  _132
REMARK   54  A    between atoms: _131  and  _134
REMARK   55  A    between atoms: _134  and  _135
REMARK   56  A    between atoms: _138  and  _139
REMARK   57  A    between atoms: _144  and  _146
REMARK   58  A    between atoms: _146  and  _147
REMARK   59  A    between atoms: _149  and  _151
REMARK   60  A    between atoms: _151  and  _152
REMARK   61  A    between atoms: _151  and  _154
REMARK   62  A    between atoms: _154  and  _155
REMARK   63  A    between atoms: _158  and  _160
REMARK   64  A    between atoms: _160  and  _161
REMARK   65  A    between atoms: _160  and  _163
REMARK   66  A    between atoms: _163  and  _164
REMARK   67  A    between atoms: _167  and  _169
REMARK   68  A    between atoms: _169  and  _170
REMARK   69  A    between atoms: _169  and  _172
REMARK   70  A    between atoms: _172  and  _173
REMARK   71  A    between atoms: _176  and  _178
REMARK   72  A    between atoms: _178  and  _179
REMARK   73  A    between atoms: _182  and  _184
REMARK   74  A    between atoms: _184  and  _185
REMARK   75  A    between atoms: _187  and  _189
REMARK   76  A    between atoms: _189  and  _190
REMARK   77  A    between atoms: _189  and  _192
REMARK   78  A    between atoms: _192  and  _193
REMARK   79  A    between atoms: _198  and  _199
REMARK   80  A    between atoms: _201  and  _203
REMARK   81  A    between atoms: _203  and  _204
REMARK   82  A    between atoms: _203  and  _206
REMARK   83  A    between atoms: _206  and  _207
REMARK   84  A    between atoms: _207  and  _208
REMARK   85  A    between atoms: _208  and  _209
REMARK   86  A    between atoms: _218  and  _220
REMARK   87  A    between atoms: _220  and  _221
REMARK   88  A    between atoms: _223  and  _225
REMARK   89  A    between atoms: _225  and  _226
REMARK   90  A    between atoms: _225  and  _228
REMARK   91  A    between atoms: _228  and  _229
REMARK   92  A    between atoms: _229  and  _230
REMARK   93  A    between atoms: _233  and  _235
REMARK   94  A    between atoms: _235  and  _236
REMARK   95  A    between atoms: _235  and  _238
REMARK   96  A    between atoms: _238  and  _239
REMARK   97  A    between atoms: _242  and  _244
REMARK   98  A    between atoms: _244  and  _245
REMARK   99  A    between atoms: _244  and  _247
REMARK  100  A    between atoms: _247  and  _248
REMARK  101  A    between atoms: _248  and  _249
REMARK  102  A    between atoms: _249  and  _250
REMARK  103  A    between atoms: _250  and  _251
REMARK  104  A    between atoms: _255  and  _257
REMARK  105  A    between atoms: _257  and  _258
REMARK  106  A    between atoms: _257  and  _260
REMARK  107  A    between atoms: _263  and  _265
REMARK  108  A    between atoms: _265  and  _266
REMARK  109  A    between atoms: _269  and  _271
REMARK  110  A    between atoms: _271  and  _272
REMARK  111  A    between atoms: _271  and  _274
REMARK  112  A    between atoms: _274  and  _275
REMARK  113  A    between atoms: _278  and  _280
REMARK  114  A    between atoms: _280  and  _281
REMARK  115  A    between atoms: _280  and  _283
REMARK  116  A    between atoms: _283  and  _284
REMARK  117  A    between atoms: _284  and  _285
REMARK  118  A    between atoms: _285  and  _286
REMARK  119  A    between atoms: _295  and  _297
REMARK  120  A    between atoms: _297  and  _298
REMARK  121  A    between atoms: _301  and  _303
REMARK  122  A    between atoms: _303  and  _304
REMARK  123  A    between atoms: _303  and  _306
REMARK  124  A    between atoms: _306  and  _307
REMARK  125  A    between atoms: _312  and  _314
REMARK  126  A    between atoms: _314  and  _315
REMARK  127  A    between atoms: _314  and  _317
REMARK  128  A    between atoms: _317  and  _318
REMARK  129  A    between atoms: _321  and  _323
REMARK  130  A    between atoms: _323  and  _324
REMARK  131  A    between atoms: _327  and  _329
REMARK  132  A    between atoms: _329  and  _330
REMARK  133  A    between atoms: _332  and  _334
REMARK  134  A    between atoms: _334  and  _335
REMARK  135  A    between atoms: _334  and  _337
REMARK  136  A    between atoms: _337  and  _338
REMARK  137  A    between atoms: _341  and  _343
REMARK  138  A    between atoms: _343  and  _344
REMARK  139  A    between atoms: _343  and  _346
REMARK  140  A    between atoms: _346  and  _347
REMARK  141  A    between atoms: _353  and  _354
REMARK  142  A    between atoms: _359  and  _361
REMARK  143  A    between atoms: _361  and  _362
REMARK  144  A    between atoms: _361  and  _364
REMARK  145  A    between atoms: _364  and  _365
REMARK  146  A    between atoms: _365  and  _366
REMARK  147  A    between atoms: _366  and  _367
REMARK  148  A    between atoms: _376  and  _378
REMARK  149  A    between atoms: _378  and  _379
REMARK  150  A    between atoms: _378  and  _381
REMARK  151  A    between atoms: _381  and  _382
REMARK  152  A    between atoms: _384  and  _386
REMARK  153  A    between atoms: _386  and  _387
REMARK  154  A    between atoms: _389  and  _391
REMARK  155  A    between atoms: _391  and  _392
REMARK  156  A    between atoms: _391  and  _394
REMARK  157  A    between atoms: _394  and  _395
REMARK  158  A    between atoms: _398  and  _400
REMARK  159  A    between atoms: _400  and  _401
REMARK  160  A    between atoms: _404  and  _406
REMARK  161  A    between atoms: _406  and  _407
REMARK  162  A    between atoms: _406  and  _409
REMARK  163  A    between atoms: _409  and  _410
REMARK  164  A    between atoms: _413  and  _415
REMARK  165  A    between atoms: _415  and  _416
REMARK  166  A    between atoms: _415  and  _418
REMARK  167  A    between atoms: _420  and  _422
REMARK  168  A    between atoms: _422  and  _423
REMARK  169  A    between atoms: _422  and  _425
REMARK  170  A    between atoms: _425  and  _426
REMARK  171  A    between atoms: _426  and  _427
REMARK  172  A    between atoms: _427  and  _428
REMARK  173  A    between atoms: _437  and  _439
REMARK  174  A    between atoms: _439  and  _440
REMARK  175  A    between atoms: _443  and  _445
REMARK  176  A    between atoms: _445  and  _446
REMARK  177  A    between atoms: _445  and  _448
REMARK  178  A    between atoms: _448  and  _449
REMARK  179  A    between atoms: _449  and  _450
REMARK  180  A    between atoms: _455  and  _457
REMARK  181  A    between atoms: _457  and  _458
REMARK  182  A    between atoms: _457  and  _460
REMARK  183  A    between atoms: _460  and  _461
REMARK  184  A    between atoms: _464  and  _466
REMARK  185  A    between atoms: _466  and  _467
REMARK  186  A    between atoms: _466  and  _469
REMARK  187  A    between atoms: _469  and  _470
REMARK  188  A    between atoms: _470  and  _471
REMARK  189  A    between atoms: _471  and  _472
REMARK  190  A    between atoms: _481  and  _483
REMARK  191  A    between atoms: _483  and  _484
REMARK  192  A    between atoms: _486  and  _488
REMARK  193  A    between atoms: _488  and  _489
REMARK  194  A    between atoms: _488  and  _491
REMARK  195  A    between atoms: _491  and  _492
REMARK  196  A    between atoms: _495  and  _497
REMARK  197  A    between atoms: _497  and  _498
REMARK  198  A    between atoms: _500  and  _502
REMARK  199  A    between atoms: _502  and  _503
REMARK  200  A    between atoms: _505  and  _507
REMARK  201  A    between atoms: _507  and  _508
REMARK  202  A    between atoms: _507  and  _510
REMARK  203  A    between atoms: _510  and  _511
REMARK  204  A    between atoms: _516  and  _518
REMARK  205  A    between atoms: _518  and  _519
REMARK  206  A    between atoms: _521  and  _523
REMARK  207  A    between atoms: _523  and  _524
REMARK  208  A    between atoms: _523  and  _526
REMARK  209  A    between atoms: _526  and  _527
REMARK  210  A    between atoms: _529  and  _531
REMARK  211  A    between atoms: _531  and  _532
REMARK  212  A    between atoms: _531  and  _534
REMARK  213  A    between atoms: _534  and  _535
REMARK  214  A    between atoms: _537  and  _539
REMARK  215  A    between atoms: _539  and  _540
REMARK  216  A    between atoms: _542  and  _544
REMARK  217  A    between atoms: _544  and  _545
REMARK  218  A    between atoms: _547  and  _549
REMARK  219  A    between atoms: _549  and  _550
REMARK  220  A    between atoms: _549  and  _552
REMARK  221  A    between atoms: _552  and  _553
REMARK                            x       y       z     vdW  Elec       q    Type
REMARK                         _______ _______ _______ _____ _____    ______ ____
ROOT
ATOM      1  CA  SER A   4      17.211   9.396  44.125  0.00  0.00    +0.178 C 
ENDROOT
BRANCH   1   2
ATOM      2  C   SER A   4      16.424   8.764  45.242  0.00  0.00    +0.243 C 
ATOM      3  O   SER A   4      16.135   9.398  46.283  0.00  0.00    -0.273 OA
ATOM      4  N   GLY A   5      15.953   7.531  45.041  0.00  0.00    -0.295 N 
ATOM      5  H   GLY A   5      16.194   6.991  44.185  0.00  0.00    +0.150 HD
BRANCH   4   6
ATOM      6  CA  GLY A   5      15.074   6.966  46.087  0.00  0.00    +0.176 C 
BRANCH   6   7
ATOM      7  C   GLY A   5      15.845   6.796  47.405  0.00  0.00    +0.243 C 
ATOM      8  O   GLY A   5      15.414   7.185  48.497  0.00  0.00    -0.273 OA
ATOM      9  N   LEU A   6      16.989   6.149  47.321  0.00  0.00    -0.297 N 
ATOM     10  H   LEU A   6      17.294   5.761  46.406  0.00  0.00    +0.150 HD
BRANCH   9  11
ATOM     11  CA  LEU A   6      17.844   5.969  48.514  0.00  0.00    +0.149 C 
BRANCH  11  12
ATOM     12  C   LEU A   6      18.295   7.301  49.073  0.00  0.00    +0.241 C 
ATOM     13  O   LEU A   6      18.425   7.443  50.301  0.00  0.00    -0.273 OA
ATOM     14  N   ALA A   7      18.521   8.273  48.183  0.00  0.00    -0.297 N 
ATOM     15  H   ALA A   7      18.379   8.103  47.167  0.00  0.00    +0.150 HD
BRANCH  14  16
ATOM     16  CA  ALA A   7      18.970   9.573  48.661  0.00  0.00    +0.149 C 
ATOM     17  CB  ALA A   7      19.206  10.521  47.517  0.00  0.00    +0.031 C 
BRANCH  16  18
ATOM     18  C   ALA A   7      17.917  10.161  49.631  0.00  0.00    +0.241 C 
ATOM     19  O   ALA A   7      18.221  10.605  50.748  0.00  0.00    -0.273 OA
ATOM     20  N   THR A   8      16.666  10.110  49.194  0.00  0.00    -0.295 N 
ATOM     21  H   THR A   8      16.444   9.679  48.274  0.00  0.00    +0.150 HD
BRANCH  20  22
ATOM     22  CA  THR A   8      15.604  10.670  50.029  0.00  0.00    +0.176 C 
BRANCH  22  23
ATOM     23  C   THR A   8      15.225   9.761  51.141  0.00  0.00    +0.243 C 
ATOM     24  O   THR A   8      15.074  10.205  52.271  0.00  0.00    -0.273 OA
ATOM     25  N   UNK A   9      15.051   8.483  50.852  0.00  0.00    -0.298 N 
ATOM     26  H   UNK A   9      15.295   8.115  49.910  0.00  0.00    +0.150 HD
BRANCH  25  27
ATOM     27  C   UNK A   9      14.511   7.598  51.878  0.00  0.00    +0.137 C 
BRANCH  27  28
ATOM     28  C   UNK A   9      15.465   7.399  53.017  0.00  0.00    +0.227 C 
ATOM     29  O   UNK A   9      15.028   7.384  54.180  0.00  0.00    -0.286 OA
ENDBRANCH  27  28
BRANCH  27  30
ATOM     30  C   UNK A   9      14.140   6.228  51.260  0.00  0.00    +0.028 C 
ATOM     31  C   UNK A   9      12.819   6.394  50.456  0.00  0.00    +0.002 C 
ENDBRANCH  27  30
ENDBRANCH  25  27
ENDBRANCH  22  23
BRANCH  22  32
ATOM     32  CB  THR A   8      14.360  11.052  49.157  0.00  0.00    +0.137 C 
ATOM     33  CG2 THR A   8      13.148  11.345  50.081  0.00  0.00    +0.034 C 
BRANCH  32  34
ATOM     34  OG1 THR A   8      14.708  12.277  48.548  0.00  0.00    -0.382 OA
ATOM     35  HG1 THR A   8      14.887  12.953  49.248  0.00  0.00    +0.210 HD
ENDBRANCH  32  34
ENDBRANCH  22  32
ENDBRANCH  20  22
ENDBRANCH  16  18
ENDBRANCH  14  16
ENDBRANCH  11  12
BRANCH  11  36
ATOM     36  CB  LEU A   6      19.067   5.123  48.158  0.00  0.00    +0.029 C 
BRANCH  36  37
ATOM     37  CG  LEU A   6      18.672   3.646  47.923  0.00  0.00    +0.002 C 
ATOM     38  CD2 LEU A   6      18.279   2.995  49.201  0.00  0.00    +0.000 C 
ATOM     39  CD1 LEU A   6      19.811   2.849  47.220  0.00  0.00    +0.000 C 
ENDBRANCH  36  37
ENDBRANCH  11  36
ENDBRANCH   9  11
ENDBRANCH   6   7
ENDBRANCH   4   6
ENDBRANCH   1   2
BRANCH   1  42
ATOM     40  C   ARG A   3      19.103   7.934  43.920  0.00  0.00    +0.241 C 
ATOM     41  O   ARG A   3      19.429   8.175  45.117  0.00  0.00    -0.273 OA
ATOM     42  N   SER A   4      17.984   8.419  43.383  0.00  0.00    -0.295 N 
ATOM     43  H   SER A   4      17.669   8.101  42.444  0.00  0.00    +0.150 HD
BRANCH  40  44
ATOM     44  CA  ARG A   3      19.962   7.023  43.013  0.00  0.00    +0.149 C 
BRANCH  44  46
ATOM     45  C   PRO A   2      22.037   8.199  42.764  0.00  0.00    +0.241 C 
ATOM     46  N   ARG A   3      21.360   7.219  43.351  0.00  0.00    -0.297 N 
ATOM     47  H   ARG A   3      21.826   6.599  44.044  0.00  0.00    +0.150 HD
ATOM     48  O   PRO A   2      21.601   8.904  41.859  0.00  0.00    -0.273 OA
BRANCH  45  51
ATOM     49  C   HIS A   1      24.656   8.417  41.248  0.00  0.00    +0.242 C 
ATOM     50  N   PRO A   2      24.250   9.117  42.322  0.00  0.00    -0.272 N 
ATOM     51  CA  PRO A   2      23.385   8.476  43.333  0.00  0.00    +0.152 C 
ATOM     52  CB  PRO A   2      23.307   9.505  44.469  0.00  0.00    +0.031 C 
ATOM     53  CG  PRO A   2      24.411  10.486  44.195  0.00  0.00    +0.024 C 
ATOM     54  CD  PRO A   2      24.624  10.513  42.687  0.00  0.00    +0.094 C 
ATOM     55  O   HIS A   1      24.427   7.233  41.130  0.00  0.00    -0.273 OA
BRANCH  49  56
ATOM     56  CA  HIS A   1      25.438   9.200  40.177  0.00  0.00    +0.151 C 
BRANCH  56  57
ATOM     57  N   HIS A   1      26.396   8.302  39.507  0.00  0.00    -0.238 NA
ATOM     58  H   HIS A   1      26.037   7.487  38.970  0.00  0.00    +0.142 HD
ENDBRANCH  56  57
BRANCH  56  59
ATOM     59  CB  HIS A   1      24.409   9.688  39.178  0.00  0.00    +0.074 C 
BRANCH  59  60
ATOM     60  CG  HIS A   1      24.933  10.623  38.131  0.00  0.00    +0.082 A 
ATOM     61  CD2 HIS A   1      26.196  11.008  37.829  0.00  0.00    +0.115 A 
ATOM     62  NE2 HIS A   1      26.119  11.883  36.751  0.00  0.00    -0.221 NA
ATOM     63  CE1 HIS A   1      24.845  12.045  36.437  0.00  0.00    +0.199 A 
ATOM     64  ND1 HIS A   1      24.095  11.322  37.271  0.00  0.00    -0.227 NA
ENDBRANCH  59  60
ENDBRANCH  56  59
ENDBRANCH  49  56
ENDBRANCH  45  51
ENDBRANCH  44  46
BRANCH  44  65
ATOM     65  CB  ARG A   3      19.585   5.553  43.243  0.00  0.00    +0.033 C 
BRANCH  65  66
ATOM     66  CG  ARG A   3      20.354   4.632  42.336  0.00  0.00    +0.045 C 
BRANCH  66  67
ATOM     67  CD  ARG A   3      19.876   3.175  42.563  0.00  0.00    +0.174 C 
BRANCH  67  68
ATOM     68  NE  ARG A   3      18.450   3.090  42.169  0.00  0.00    -0.265 N 
ATOM     69  CZ  ARG A   3      17.592   2.199  42.652  0.00  0.00    +0.342 C 
ATOM     70  NH2 ARG A   3      17.987   1.252  43.497  0.00  0.00    -0.292 N 
ATOM     71 HH21 ARG A   3      17.300   0.563  43.864  0.00  0.00    +0.255 HD
ATOM     72 HH22 ARG A   3      18.983   1.200  43.791  0.00  0.00    +0.255 HD
ATOM     73  NH1 ARG A   3      16.314   2.190  42.273  0.00  0.00    -0.292 N 
ATOM     74 HH11 ARG A   3      15.660   1.482  42.665  0.00  0.00    +0.255 HD
ATOM     75 HH12 ARG A   3      15.971   2.891  41.585  0.00  0.00    +0.255 HD
ATOM     76  HE  ARG A   3      18.098   3.773  41.468  0.00  0.00    +0.259 HD
ENDBRANCH  67  68
ENDBRANCH  66  67
ENDBRANCH  65  66
ENDBRANCH  44  65
ENDBRANCH  40  44
ENDBRANCH   1  42
BRANCH   1  77
ATOM     77  CB  SER A   4      16.287  10.176  43.143  0.00  0.00    +0.166 C 
BRANCH  77  78
ATOM     78  OG  SER A   4      15.245   9.336  42.681  0.00  0.00    -0.380 OA
ATOM     79  H   SER A   4      14.666   9.843  42.059  0.00  0.00    +0.211 HD
ENDBRANCH  77  78
ENDBRANCH   1  77
TORSDOF 30
REMARK  Name = ../refined-set-2016/2py4/2py4_pocket.pdb
REMARK  221 active torsions:
REMARK  status: ('A' for Active; 'I' for Inactive)
REMARK    1  A    between atoms: _1  and  _3
REMARK    2  A    between atoms: _3  and  _4
REMARK    3  A    between atoms: _3  and  _6
REMARK    4  A    between atoms: _6  and  _7
REMARK    5  A    between atoms: _10  and  _12
REMARK    6  A    between atoms: _12  and  _13
REMARK    7  A    between atoms: _12  and  _15
REMARK    8  A    between atoms: _15  and  _16
REMARK    9  A    between atoms: _19  and  _21
REMARK   10  A    between atoms: _21  and  _22
REMARK   11  A    between atoms: _21  and  _24
REMARK   12  A    between atoms: _27  and  _29
REMARK   13  A    between atoms: _29  and  _30
REMARK   14  A    between atoms: _29  and  _32
REMARK   15  A    between atoms: _32  and  _33
REMARK   16  A    between atoms: _36  and  _38
REMARK   17  A    between atoms: _38  and  _39
REMARK   18  A    between atoms: _38  and  _41
REMARK   19  A    between atoms: _44  and  _46
REMARK   20  A    between atoms: _46  and  _47
REMARK   21  A    between atoms: _46  and  _49
REMARK   22  A    between atoms: _52  and  _54
REMARK   23  A    between atoms: _54  and  _55
REMARK   24  A    between atoms: _54  and  _57
REMARK   25  A    between atoms: _60  and  _62
REMARK   26  A    between atoms: _62  and  _63
REMARK   27  A    between atoms: _62  and  _65
REMARK   28  A    between atoms: _68  and  _70
REMARK   29  A    between atoms: _70  and  _71
REMARK   30  A    between atoms: _73  and  _75
REMARK   31  A    between atoms: _75  and  _76
REMARK   32  A    between atoms: _75  and  _78
REMARK   33  A    between atoms: _78  and  _79
REMARK   34  A    between atoms: _82  and  _84
REMARK   35  A    between atoms: _84  and  _85
REMARK   36  A    between atoms: _84  and  _87
REMARK   37  A    between atoms: _90  and  _92
REMARK   38  A    between atoms: _92  and  _93
REMARK   39  A    between atoms: _92  and  _95
REMARK   40  A    between atoms: _95  and  _96
REMARK   41  A    between atoms: _101  and  _103
REMARK   42  A    between atoms: _103  and  _104
REMARK   43  A    between atoms: _103  and  _106
REMARK   44  A    between atoms: _106  and  _107
REMARK   45  A    between atoms: _110  and  _112
REMARK   46  A    between atoms: _112  and  _113
REMARK   47  A    between atoms: _112  and  _115
REMARK   48  A    between atoms: _118  and  _120
REMARK   49  A    between atoms: _120  and  _121
REMARK   50  A    between atoms: _120  and  _123
REMARK   51  A    between atoms: _123  and  _124
REMARK   52  A    between atoms: _129  and  _131
REMARK   53  A    between atoms: _131  and  _132
REMARK   54  A    between atoms: _131  and  _134
REMARK   55  A    between atoms: _134  and  _135
REMARK   56  A    between atoms: _138  and  _139
REMARK   57  A    between atoms: _144  and  _146
REMARK   58  A    between atoms: _146  and  _147
REMARK   59  A    between atoms: _149  and  _151
REMARK   60  A    between atoms: _151  and  _152
REMARK   61  A    between atoms: _151  and  _154
REMARK   62  A    between atoms: _154  and  _155
REMARK   63  A    between atoms: _158  and  _160
REMARK   64  A    between atoms: _160  and  _161
REMARK   65  A    between atoms: _160  and  _163
REMARK   66  A    between atoms: _163  and  _164
REMARK   67  A    between atoms: _167  and  _169
REMARK   68  A    between atoms: _169  and  _170
REMARK   69  A    between atoms: _169  and  _172
REMARK   70  A    between atoms: _172  and  _173
REMARK   71  A    between atoms: _176  and  _178
REMARK   72  A    between atoms: _178  and  _179
REMARK   73  A    between atoms: _182  and  _184
REMARK   74  A    between atoms: _184  and  _185
REMARK   75  A    between atoms: _187  and  _189
REMARK   76  A    between atoms: _189  and  _190
REMARK   77  A    between atoms: _189  and  _192
REMARK   78  A    between atoms: _192  and  _193
REMARK   79  A    between atoms: _198  and  _199
REMARK   80  A    between atoms: _201  and  _203
REMARK   81  A    between atoms: _203  and  _204
REMARK   82  A    between atoms: _203  and  _206
REMARK   83  A    between atoms: _206  and  _207
REMARK   84  A    between atoms: _207  and  _208
REMARK   85  A    between atoms: _208  and  _209
REMARK   86  A    between atoms: _218  and  _220
REMARK   87  A    between atoms: _220  and  _221
REMARK   88  A    between atoms: _223  and  _225
REMARK   89  A    between atoms: _225  and  _226
REMARK   90  A    between atoms: _225  and  _228
REMARK   91  A    between atoms: _228  and  _229
REMARK   92  A    between atoms: _229  and  _230
REMARK   93  A    between atoms: _233  and  _235
REMARK   94  A    between atoms: _235  and  _236
REMARK   95  A    between atoms: _235  and  _238
REMARK   96  A    between atoms: _238  and  _239
REMARK   97  A    between atoms: _242  and  _244
REMARK   98  A    between atoms: _244  and  _245
REMARK   99  A    between atoms: _244  and  _247
REMARK  100  A    between atoms: _247  and  _248
REMARK  101  A    between atoms: _248  and  _249
REMARK  102  A    between atoms: _249  and  _250
REMARK  103  A    between atoms: _250  and  _251
REMARK  104  A    between atoms: _255  and  _257
REMARK  105  A    between atoms: _257  and  _258
REMARK  106  A    between atoms: _257  and  _260
REMARK  107  A    between atoms: _263  and  _265
REMARK  108  A    between atoms: _265  and  _266
REMARK  109  A    between atoms: _269  and  _271
REMARK  110  A    between atoms: _271  and  _272
REMARK  111  A    between atoms: _271  and  _274
REMARK  112  A    between atoms: _274  and  _275
REMARK  113  A    between atoms: _278  and  _280
REMARK  114  A    between atoms: _280  and  _281
REMARK  115  A    between atoms: _280  and  _283
REMARK  116  A    between atoms: _283  and  _284
REMARK  117  A    between atoms: _284  and  _285
REMARK  118  A    between atoms: _285  and  _286
REMARK  119  A    between atoms: _295  and  _297
REMARK  120  A    between atoms: _297  and  _298
REMARK  121  A    between atoms: _301  and  _303
REMARK  122  A    between atoms: _303  and  _304
REMARK  123  A    between atoms: _303  and  _306
REMARK  124  A    between atoms: _306  and  _307
REMARK  125  A    between atoms: _312  and  _314
REMARK  126  A    between atoms: _314  and  _315
REMARK  127  A    between atoms: _314  and  _317
REMARK  128  A    between atoms: _317  and  _318
REMARK  129  A    between atoms: _321  and  _323
REMARK  130  A    between atoms: _323  and  _324
REMARK  131  A    between atoms: _327  and  _329
REMARK  132  A    between atoms: _329  and  _330
REMARK  133  A    between atoms: _332  and  _334
REMARK  134  A    between atoms: _334  and  _335
REMARK  135  A    between atoms: _334  and  _337
REMARK  136  A    between atoms: _337  and  _338
REMARK  137  A    between atoms: _341  and  _343
REMARK  138  A    between atoms: _343  and  _344
REMARK  139  A    between atoms: _343  and  _346
REMARK  140  A    between atoms: _346  and  _347
REMARK  141  A    between atoms: _353  and  _354
REMARK  142  A    between atoms: _359  and  _361
REMARK  143  A    between atoms: _361  and  _362
REMARK  144  A    between atoms: _361  and  _364
REMARK  145  A    between atoms: _364  and  _365
REMARK  146  A    between atoms: _365  and  _366
REMARK  147  A    between atoms: _366  and  _367
REMARK  148  A    between atoms: _376  and  _378
REMARK  149  A    between atoms: _378  and  _379
REMARK  150  A    between atoms: _378  and  _381
REMARK  151  A    between atoms: _381  and  _382
REMARK  152  A    between atoms: _384  and  _386
REMARK  153  A    between atoms: _386  and  _387
REMARK  154  A    between atoms: _389  and  _391
REMARK  155  A    between atoms: _391  and  _392
REMARK  156  A    between atoms: _391  and  _394
REMARK  157  A    between atoms: _394  and  _395
REMARK  158  A    between atoms: _398  and  _400
REMARK  159  A    between atoms: _400  and  _401
REMARK  160  A    between atoms: _404  and  _406
REMARK  161  A    between atoms: _406  and  _407
REMARK  162  A    between atoms: _406  and  _409
REMARK  163  A    between atoms: _409  and  _410
REMARK  164  A    between atoms: _413  and  _415
REMARK  165  A    between atoms: _415  and  _416
REMARK  166  A    between atoms: _415  and  _418
REMARK  167  A    between atoms: _420  and  _422
REMARK  168  A    between atoms: _422  and  _423
REMARK  169  A    between atoms: _422  and  _425
REMARK  170  A    between atoms: _425  and  _426
REMARK  171  A    between atoms: _426  and  _427
REMARK  172  A    between atoms: _427  and  _428
REMARK  173  A    between atoms: _437  and  _439
REMARK  174  A    between atoms: _439  and  _440
REMARK  175  A    between atoms: _443  and  _445
REMARK  176  A    between atoms: _445  and  _446
REMARK  177  A    between atoms: _445  and  _448
REMARK  178  A    between atoms: _448  and  _449
REMARK  179  A    between atoms: _449  and  _450
REMARK  180  A    between atoms: _455  and  _457
REMARK  181  A    between atoms: _457  and  _458
REMARK  182  A    between atoms: _457  and  _460
REMARK  183  A    between atoms: _460  and  _461
REMARK  184  A    between atoms: _464  and  _466
REMARK  185  A    between atoms: _466  and  _467
REMARK  186  A    between atoms: _466  and  _469
REMARK  187  A    between atoms: _469  and  _470
REMARK  188  A    between atoms: _470  and  _471
REMARK  189  A    between atoms: _471  and  _472
REMARK  190  A    between atoms: _481  and  _483
REMARK  191  A    between atoms: _483  and  _484
REMARK  192  A    between atoms: _486  and  _488
REMARK  193  A    between atoms: _488  and  _489
REMARK  194  A    between atoms: _488  and  _491
REMARK  195  A    between atoms: _491  and  _492
REMARK  196  A    between atoms: _495  and  _497
REMARK  197  A    between atoms: _497  and  _498
REMARK  198  A    between atoms: _500  and  _502
REMARK  199  A    between atoms: _502  and  _503
REMARK  200  A    between atoms: _505  and  _507
REMARK  201  A    between atoms: _507  and  _508
REMARK  202  A    between atoms: _507  and  _510
REMARK  203  A    between atoms: _510  and  _511
REMARK  204  A    between atoms: _516  and  _518
REMARK  205  A    between atoms: _518  and  _519
REMARK  206  A    between atoms: _521  and  _523
REMARK  207  A    between atoms: _523  and  _524
REMARK  208  A    between atoms: _523  and  _526
REMARK  209  A    between atoms: _526  and  _527
REMARK  210  A    between atoms: _529  and  _531
REMARK  211  A    between atoms: _531  and  _532
REMARK  212  A    between atoms: _531  and  _534
REMARK  213  A    between atoms: _534  and  _535
REMARK  214  A    between atoms: _537  and  _539
REMARK  215  A    between atoms: _539  and  _540
REMARK  216  A    between atoms: _542  and  _544
REMARK  217  A    between atoms: _544  and  _545
REMARK  218  A    between atoms: _547  and  _549
REMARK  219  A    between atoms: _549  and  _550
REMARK  220  A    between atoms: _549  and  _552
REMARK  221  A    between atoms: _552  and  _553
REMARK                            x       y       z     vdW  Elec       q    Type
REMARK                         _______ _______ _______ _____ _____    ______ ____
ROOT
ATOM      1  NE  ARG A   1      17.986  -2.738  40.771  0.00  0.00    -0.265 N 
ATOM      2  HE  ARG A   1      17.957  -3.671  41.230  0.00  0.00    +0.259 HD
ATOM      3  CZ  ARG A   1      16.852  -2.019  40.757  0.00  0.00    +0.342 C 
ATOM      4  NH2 ARG A   1      15.744  -2.554  41.247  0.00  0.00    -0.292 N 
ATOM      5 HH21 ARG A   1      15.760  -3.519  41.636  0.00  0.00    +0.255 HD
ATOM      6 HH22 ARG A   1      14.858  -2.010  41.243  0.00  0.00    +0.255 HD
ATOM      7  NH1 ARG A   1      16.784  -0.767  40.248  0.00  0.00    -0.292 N 
ATOM      8 HH11 ARG A   1      15.882  -0.249  40.260  0.00  0.00    +0.255 HD
ATOM      9 HH12 ARG A   1      17.634  -0.323  39.845  0.00  0.00    +0.255 HD
ENDROOT
BRANCH   1  10
ATOM     10  CD  ARG A   1      19.278  -2.304  40.181  0.00  0.00    +0.174 C 
BRANCH  10  11
ATOM     11  CG  ARG A   1      20.417  -2.325  41.213  0.00  0.00    +0.045 C 
BRANCH  11  12
ATOM     12  CB  ARG A   1      20.286  -1.142  42.197  0.00  0.00    +0.029 C 
BRANCH  12  13
ATOM     13  CA  ARG A   1      21.353  -1.297  43.281  0.00  0.00    +0.133 C 
BRANCH  13  14
ATOM     14  N   ARG A   1      20.938  -2.282  44.264  0.00  0.00    -0.239 NA
ATOM     15  H   ARG A   1      19.934  -2.344  44.529  0.00  0.00    +0.142 HD
ENDBRANCH  13  14
BRANCH  13  16
ATOM     16  C   ARG A   1      21.645   0.016  43.973  0.00  0.00    +0.224 C 
ATOM     17  O   ARG A   1      20.718   0.650  44.524  0.00  0.00    -0.287 OA
ENDBRANCH  13  16
ENDBRANCH  12  13
ENDBRANCH  11  12
ENDBRANCH  10  11
ENDBRANCH   1  10
TORSDOF 6
REMARK  Name = ../refined-set-2016/2py4/2py4_pocket.pdb
REMARK  221 active torsions:
REMARK  status: ('A' for Active; 'I' for Inactive)
REMARK    1  A    between atoms: _1  and  _3
REMARK    2  A    between atoms: _3  and  _4
REMARK    3  A    between atoms: _3  and  _6
REMARK    4  A    between atoms: _6  and  _7
REMARK    5  A    between atoms: _10  and  _12
REMARK    6  A    between atoms: _12  and  _13
REMARK    7  A    between atoms: _12  and  _15
REMARK    8  A    between atoms: _15  and  _16
REMARK    9  A    between atoms: _19  and  _21
REMARK   10  A    between atoms: _21  and  _22
REMARK   11  A    between atoms: _21  and  _24
REMARK   12  A    between atoms: _27  and  _29
REMARK   13  A    between atoms: _29  and  _30
REMARK   14  A    between atoms: _29  and  _32
REMARK   15  A    between atoms: _32  and  _33
REMARK   16  A    between atoms: _36  and  _38
REMARK   17  A    between atoms: _38  and  _39
REMARK   18  A    between atoms: _38  and  _41
REMARK   19  A    between atoms: _44  and  _46
REMARK   20  A    between atoms: _46  and  _47
REMARK   21  A    between atoms: _46  and  _49
REMARK   22  A    between atoms: _52  and  _54
REMARK   23  A    between atoms: _54  and  _55
REMARK   24  A    between atoms: _54  and  _57
REMARK   25  A    between atoms: _60  and  _62
REMARK   26  A    between atoms: _62  and  _63
REMARK   27  A    between atoms: _62  and  _65
REMARK   28  A    between atoms: _68  and  _70
REMARK   29  A    between atoms: _70  and  _71
REMARK   30  A    between atoms: _73  and  _75
REMARK   31  A    between atoms: _75  and  _76
REMARK   32  A    between atoms: _75  and  _78
REMARK   33  A    between atoms: _78  and  _79
REMARK   34  A    between atoms: _82  and  _84
REMARK   35  A    between atoms: _84  and  _85
REMARK   36  A    between atoms: _84  and  _87
REMARK   37  A    between atoms: _90  and  _92
REMARK   38  A    between atoms: _92  and  _93
REMARK   39  A    between atoms: _92  and  _95
REMARK   40  A    between atoms: _95  and  _96
REMARK   41  A    between atoms: _101  and  _103
REMARK   42  A    between atoms: _103  and  _104
REMARK   43  A    between atoms: _103  and  _106
REMARK   44  A    between atoms: _106  and  _107
REMARK   45  A    between atoms: _110  and  _112
REMARK   46  A    between atoms: _112  and  _113
REMARK   47  A    between atoms: _112  and  _115
REMARK   48  A    between atoms: _118  and  _120
REMARK   49  A    between atoms: _120  and  _121
REMARK   50  A    between atoms: _120  and  _123
REMARK   51  A    between atoms: _123  and  _124
REMARK   52  A    between atoms: _129  and  _131
REMARK   53  A    between atoms: _131  and  _132
REMARK   54  A    between atoms: _131  and  _134
REMARK   55  A    between atoms: _134  and  _135
REMARK   56  A    between atoms: _138  and  _139
REMARK   57  A    between atoms: _144  and  _146
REMARK   58  A    between atoms: _146  and  _147
REMARK   59  A    between atoms: _149  and  _151
REMARK   60  A    between atoms: _151  and  _152
REMARK   61  A    between atoms: _151  and  _154
REMARK   62  A    between atoms: _154  and  _155
REMARK   63  A    between atoms: _158  and  _160
REMARK   64  A    between atoms: _160  and  _161
REMARK   65  A    between atoms: _160  and  _163
REMARK   66  A    between atoms: _163  and  _164
REMARK   67  A    between atoms: _167  and  _169
REMARK   68  A    between atoms: _169  and  _170
REMARK   69  A    between atoms: _169  and  _172
REMARK   70  A    between atoms: _172  and  _173
REMARK   71  A    between atoms: _176  and  _178
REMARK   72  A    between atoms: _178  and  _179
REMARK   73  A    between atoms: _182  and  _184
REMARK   74  A    between atoms: _184  and  _185
REMARK   75  A    between atoms: _187  and  _189
REMARK   76  A    between atoms: _189  and  _190
REMARK   77  A    between atoms: _189  and  _192
REMARK   78  A    between atoms: _192  and  _193
REMARK   79  A    between atoms: _198  and  _199
REMARK   80  A    between atoms: _201  and  _203
REMARK   81  A    between atoms: _203  and  _204
REMARK   82  A    between atoms: _203  and  _206
REMARK   83  A    between atoms: _206  and  _207
REMARK   84  A    between atoms: _207  and  _208
REMARK   85  A    between atoms: _208  and  _209
REMARK   86  A    between atoms: _218  and  _220
REMARK   87  A    between atoms: _220  and  _221
REMARK   88  A    between atoms: _223  and  _225
REMARK   89  A    between atoms: _225  and  _226
REMARK   90  A    between atoms: _225  and  _228
REMARK   91  A    between atoms: _228  and  _229
REMARK   92  A    between atoms: _229  and  _230
REMARK   93  A    between atoms: _233  and  _235
REMARK   94  A    between atoms: _235  and  _236
REMARK   95  A    between atoms: _235  and  _238
REMARK   96  A    between atoms: _238  and  _239
REMARK   97  A    between atoms: _242  and  _244
REMARK   98  A    between atoms: _244  and  _245
REMARK   99  A    between atoms: _244  and  _247
REMARK  100  A    between atoms: _247  and  _248
REMARK  101  A    between atoms: _248  and  _249
REMARK  102  A    between atoms: _249  and  _250
REMARK  103  A    between atoms: _250  and  _251
REMARK  104  A    between atoms: _255  and  _257
REMARK  105  A    between atoms: _257  and  _258
REMARK  106  A    between atoms: _257  and  _260
REMARK  107  A    between atoms: _263  and  _265
REMARK  108  A    between atoms: _265  and  _266
REMARK  109  A    between atoms: _269  and  _271
REMARK  110  A    between atoms: _271  and  _272
REMARK  111  A    between atoms: _271  and  _274
REMARK  112  A    between atoms: _274  and  _275
REMARK  113  A    between atoms: _278  and  _280
REMARK  114  A    between atoms: _280  and  _281
REMARK  115  A    between atoms: _280  and  _283
REMARK  116  A    between atoms: _283  and  _284
REMARK  117  A    between atoms: _284  and  _285
REMARK  118  A    between atoms: _285  and  _286
REMARK  119  A    between atoms: _295  and  _297
REMARK  120  A    between atoms: _297  and  _298
REMARK  121  A    between atoms: _301  and  _303
REMARK  122  A    between atoms: _303  and  _304
REMARK  123  A    between atoms: _303  and  _306
REMARK  124  A    between atoms: _306  and  _307
REMARK  125  A    between atoms: _312  and  _314
REMARK  126  A    between atoms: _314  and  _315
REMARK  127  A    between atoms: _314  and  _317
REMARK  128  A    between atoms: _317  and  _318
REMARK  129  A    between atoms: _321  and  _323
REMARK  130  A    between atoms: _323  and  _324
REMARK  131  A    between atoms: _327  and  _329
REMARK  132  A    between atoms: _329  and  _330
REMARK  133  A    between atoms: _332  and  _334
REMARK  134  A    between atoms: _334  and  _335
REMARK  135  A    between atoms: _334  and  _337
REMARK  136  A    between atoms: _337  and  _338
REMARK  137  A    between atoms: _341  and  _343
REMARK  138  A    between atoms: _343  and  _344
REMARK  139  A    between atoms: _343  and  _346
REMARK  140  A    between atoms: _346  and  _347
REMARK  141  A    between atoms: _353  and  _354
REMARK  142  A    between atoms: _359  and  _361
REMARK  143  A    between atoms: _361  and  _362
REMARK  144  A    between atoms: _361  and  _364
REMARK  145  A    between atoms: _364  and  _365
REMARK  146  A    between atoms: _365  and  _366
REMARK  147  A    between atoms: _366  and  _367
REMARK  148  A    between atoms: _376  and  _378
REMARK  149  A    between atoms: _378  and  _379
REMARK  150  A    between atoms: _378  and  _381
REMARK  151  A    between atoms: _381  and  _382
REMARK  152  A    between atoms: _384  and  _386
REMARK  153  A    between atoms: _386  and  _387
REMARK  154  A    between atoms: _389  and  _391
REMARK  155  A    between atoms: _391  and  _392
REMARK  156  A    between atoms: _391  and  _394
REMARK  157  A    between atoms: _394  and  _395
REMARK  158  A    between atoms: _398  and  _400
REMARK  159  A    between atoms: _400  and  _401
REMARK  160  A    between atoms: _404  and  _406
REMARK  161  A    between atoms: _406  and  _407
REMARK  162  A    between atoms: _406  and  _409
REMARK  163  A    between atoms: _409  and  _410
REMARK  164  A    between atoms: _413  and  _415
REMARK  165  A    between atoms: _415  and  _416
REMARK  166  A    between atoms: _415  and  _418
REMARK  167  A    between atoms: _420  and  _422
REMARK  168  A    between atoms: _422  and  _423
REMARK  169  A    between atoms: _422  and  _425
REMARK  170  A    between atoms: _425  and  _426
REMARK  171  A    between atoms: _426  and  _427
REMARK  172  A    between atoms: _427  and  _428
REMARK  173  A    between atoms: _437  and  _439
REMARK  174  A    between atoms: _439  and  _440
REMARK  175  A    between atoms: _443  and  _445
REMARK  176  A    between atoms: _445  and  _446
REMARK  177  A    between atoms: _445  and  _448
REMARK  178  A    between atoms: _448  and  _449
REMARK  179  A    between atoms: _449  and  _450
REMARK  180  A    between atoms: _455  and  _457
REMARK  181  A    between atoms: _457  and  _458
REMARK  182  A    between atoms: _457  and  _460
REMARK  183  A    between atoms: _460  and  _461
REMARK  184  A    between atoms: _464  and  _466
REMARK  185  A    between atoms: _466  and  _467
REMARK  186  A    between atoms: _466  and  _469
REMARK  187  A    between atoms: _469  and  _470
REMARK  188  A    between atoms: _470  and  _471
REMARK  189  A    between atoms: _471  and  _472
REMARK  190  A    between atoms: _481  and  _483
REMARK  191  A    between atoms: _483  and  _484
REMARK  192  A    between atoms: _486  and  _488
REMARK  193  A    between atoms: _488  and  _489
REMARK  194  A    between atoms: _488  and  _491
REMARK  195  A    between atoms: _491  and  _492
REMARK  196  A    between atoms: _495  and  _497
REMARK  197  A    between atoms: _497  and  _498
REMARK  198  A    between atoms: _500  and  _502
REMARK  199  A    between atoms: _502  and  _503
REMARK  200  A    between atoms: _505  and  _507
REMARK  201  A    between atoms: _507  and  _508
REMARK  202  A    between atoms: _507  and  _510
REMARK  203  A    between atoms: _510  and  _511
REMARK  204  A    between atoms: _516  and  _518
REMARK  205  A    between atoms: _518  and  _519
REMARK  206  A    between atoms: _521  and  _523
REMARK  207  A    between atoms: _523  and  _524
REMARK  208  A    between atoms: _523  and  _526
REMARK  209  A    between atoms: _526  and  _527
REMARK  210  A    between atoms: _529  and  _531
REMARK  211  A    between atoms: _531  and  _532
REMARK  212  A    between atoms: _531  and  _534
REMARK  213  A    between atoms: _534  and  _535
REMARK  214  A    between atoms: _537  and  _539
REMARK  215  A    between atoms: _539  and  _540
REMARK  216  A    between atoms: _542  and  _544
REMARK  217  A    between atoms: _544  and  _545
REMARK  218  A    between atoms: _547  and  _549
REMARK  219  A    between atoms: _549  and  _550
REMARK  220  A    between atoms: _549  and  _552
REMARK  221  A    between atoms: _552  and  _553
REMARK                            x       y       z     vdW  Elec       q    Type
REMARK                         _______ _______ _______ _____ _____    ______ ____
ROOT
ATOM      1  CA  GLN A   2      23.800   4.472  38.403  0.00  0.00    +0.137 C 
ENDROOT
BRANCH   1   4
ATOM      2  C   ALA A   1      23.823   3.694  40.677  0.00  0.00    +0.238 C 
ATOM      3  O   ALA A   1      23.324   2.642  40.345  0.00  0.00    -0.274 OA
ATOM      4  N   GLN A   2      24.049   4.692  39.819  0.00  0.00    -0.298 N 
ATOM      5  H   GLN A   2      24.397   5.612  40.158  0.00  0.00    +0.150 HD
BRANCH   2   6
ATOM      6  CA  ALA A   1      24.192   3.936  42.127  0.00  0.00    +0.145 C 
ATOM      7  CB  ALA A   1      25.735   4.125  42.251  0.00  0.00    +0.028 C 
BRANCH   6   8
ATOM      8  N   ALA A   1      23.786   2.743  42.834  0.00  0.00    -0.238 NA
ATOM      9  H   ALA A   1      23.463   1.910  42.301  0.00  0.00    +0.142 HD
ENDBRANCH   6   8
ENDBRANCH   2   6
ENDBRANCH   1   4
BRANCH   1  10
ATOM     10  C   GLN A   2      24.931   5.032  37.600  0.00  0.00    +0.227 C 
ATOM     11  O   GLN A   2      25.603   5.996  38.020  0.00  0.00    -0.286 OA
ENDBRANCH   1  10
BRANCH   1  12
ATOM     12  CB  GLN A   2      22.457   5.142  38.017  0.00  0.00    +0.037 C 
BRANCH  12  13
ATOM     13  CG  GLN A   2      22.425   6.637  38.217  0.00  0.00    +0.087 C 
BRANCH  13  14
ATOM     14  CD  GLN A   2      20.988   7.125  38.189  0.00  0.00    +0.219 C 
ATOM     15  NE2 GLN A   2      20.580   7.885  39.232  0.00  0.00    -0.329 N 
ATOM     16 HE21 GLN A   2      21.242   8.111  40.002  0.00  0.00    +0.145 HD
ATOM     17 HE22 GLN A   2      19.604   8.243  39.264  0.00  0.00    +0.145 HD
ATOM     18  OE1 GLN A   2      20.259   6.814  37.236  0.00  0.00    -0.275 OA
ENDBRANCH  13  14
ENDBRANCH  12  13
ENDBRANCH   1  12
TORSDOF 7
REMARK  Name = ../refined-set-2016/2py4/2py4_pocket.pdb
REMARK  221 active torsions:
REMARK  status: ('A' for Active; 'I' for Inactive)
REMARK    1  A    between atoms: _1  and  _3
REMARK    2  A    between atoms: _3  and  _4
REMARK    3  A    between atoms: _3  and  _6
REMARK    4  A    between atoms: _6  and  _7
REMARK    5  A    between atoms: _10  and  _12
REMARK    6  A    between atoms: _12  and  _13
REMARK    7  A    between atoms: _12  and  _15
REMARK    8  A    between atoms: _15  and  _16
REMARK    9  A    between atoms: _19  and  _21
REMARK   10  A    between atoms: _21  and  _22
REMARK   11  A    between atoms: _21  and  _24
REMARK   12  A    between atoms: _27  and  _29
REMARK   13  A    between atoms: _29  and  _30
REMARK   14  A    between atoms: _29  and  _32
REMARK   15  A    between atoms: _32  and  _33
REMARK   16  A    between atoms: _36  and  _38
REMARK   17  A    between atoms: _38  and  _39
REMARK   18  A    between atoms: _38  and  _41
REMARK   19  A    between atoms: _44  and  _46
REMARK   20  A    between atoms: _46  and  _47
REMARK   21  A    between atoms: _46  and  _49
REMARK   22  A    between atoms: _52  and  _54
REMARK   23  A    between atoms: _54  and  _55
REMARK   24  A    between atoms: _54  and  _57
REMARK   25  A    between atoms: _60  and  _62
REMARK   26  A    between atoms: _62  and  _63
REMARK   27  A    between atoms: _62  and  _65
REMARK   28  A    between atoms: _68  and  _70
REMARK   29  A    between atoms: _70  and  _71
REMARK   30  A    between atoms: _73  and  _75
REMARK   31  A    between atoms: _75  and  _76
REMARK   32  A    between atoms: _75  and  _78
REMARK   33  A    between atoms: _78  and  _79
REMARK   34  A    between atoms: _82  and  _84
REMARK   35  A    between atoms: _84  and  _85
REMARK   36  A    between atoms: _84  and  _87
REMARK   37  A    between atoms: _90  and  _92
REMARK   38  A    between atoms: _92  and  _93
REMARK   39  A    between atoms: _92  and  _95
REMARK   40  A    between atoms: _95  and  _96
REMARK   41  A    between atoms: _101  and  _103
REMARK   42  A    between atoms: _103  and  _104
REMARK   43  A    between atoms: _103  and  _106
REMARK   44  A    between atoms: _106  and  _107
REMARK   45  A    between atoms: _110  and  _112
REMARK   46  A    between atoms: _112  and  _113
REMARK   47  A    between atoms: _112  and  _115
REMARK   48  A    between atoms: _118  and  _120
REMARK   49  A    between atoms: _120  and  _121
REMARK   50  A    between atoms: _120  and  _123
REMARK   51  A    between atoms: _123  and  _124
REMARK   52  A    between atoms: _129  and  _131
REMARK   53  A    between atoms: _131  and  _132
REMARK   54  A    between atoms: _131  and  _134
REMARK   55  A    between atoms: _134  and  _135
REMARK   56  A    between atoms: _138  and  _139
REMARK   57  A    between atoms: _144  and  _146
REMARK   58  A    between atoms: _146  and  _147
REMARK   59  A    between atoms: _149  and  _151
REMARK   60  A    between atoms: _151  and  _152
REMARK   61  A    between atoms: _151  and  _154
REMARK   62  A    between atoms: _154  and  _155
REMARK   63  A    between atoms: _158  and  _160
REMARK   64  A    between atoms: _160  and  _161
REMARK   65  A    between atoms: _160  and  _163
REMARK   66  A    between atoms: _163  and  _164
REMARK   67  A    between atoms: _167  and  _169
REMARK   68  A    between atoms: _169  and  _170
REMARK   69  A    between atoms: _169  and  _172
REMARK   70  A    between atoms: _172  and  _173
REMARK   71  A    between atoms: _176  and  _178
REMARK   72  A    between atoms: _178  and  _179
REMARK   73  A    between atoms: _182  and  _184
REMARK   74  A    between atoms: _184  and  _185
REMARK   75  A    between atoms: _187  and  _189
REMARK   76  A    between atoms: _189  and  _190
REMARK   77  A    between atoms: _189  and  _192
REMARK   78  A    between atoms: _192  and  _193
REMARK   79  A    between atoms: _198  and  _199
REMARK   80  A    between atoms: _201  and  _203
REMARK   81  A    between atoms: _203  and  _204
REMARK   82  A    between atoms: _203  and  _206
REMARK   83  A    between atoms: _206  and  _207
REMARK   84  A    between atoms: _207  and  _208
REMARK   85  A    between atoms: _208  and  _209
REMARK   86  A    between atoms: _218  and  _220
REMARK   87  A    between atoms: _220  and  _221
REMARK   88  A    between atoms: _223  and  _225
REMARK   89  A    between atoms: _225  and  _226
REMARK   90  A    between atoms: _225  and  _228
REMARK   91  A    between atoms: _228  and  _229
REMARK   92  A    between atoms: _229  and  _230
REMARK   93  A    between atoms: _233  and  _235
REMARK   94  A    between atoms: _235  and  _236
REMARK   95  A    between atoms: _235  and  _238
REMARK   96  A    between atoms: _238  and  _239
REMARK   97  A    between atoms: _242  and  _244
REMARK   98  A    between atoms: _244  and  _245
REMARK   99  A    between atoms: _244  and  _247
REMARK  100  A    between atoms: _247  and  _248
REMARK  101  A    between atoms: _248  and  _249
REMARK  102  A    between atoms: _249  and  _250
REMARK  103  A    between atoms: _250  and  _251
REMARK  104  A    between atoms: _255  and  _257
REMARK  105  A    between atoms: _257  and  _258
REMARK  106  A    between atoms: _257  and  _260
REMARK  107  A    between atoms: _263  and  _265
REMARK  108  A    between atoms: _265  and  _266
REMARK  109  A    between atoms: _269  and  _271
REMARK  110  A    between atoms: _271  and  _272
REMARK  111  A    between atoms: _271  and  _274
REMARK  112  A    between atoms: _274  and  _275
REMARK  113  A    between atoms: _278  and  _280
REMARK  114  A    between atoms: _280  and  _281
REMARK  115  A    between atoms: _280  and  _283
REMARK  116  A    between atoms: _283  and  _284
REMARK  117  A    between atoms: _284  and  _285
REMARK  118  A    between atoms: _285  and  _286
REMARK  119  A    between atoms: _295  and  _297
REMARK  120  A    between atoms: _297  and  _298
REMARK  121  A    between atoms: _301  and  _303
REMARK  122  A    between atoms: _303  and  _304
REMARK  123  A    between atoms: _303  and  _306
REMARK  124  A    between atoms: _306  and  _307
REMARK  125  A    between atoms: _312  and  _314
REMARK  126  A    between atoms: _314  and  _315
REMARK  127  A    between atoms: _314  and  _317
REMARK  128  A    between atoms: _317  and  _318
REMARK  129  A    between atoms: _321  and  _323
REMARK  130  A    between atoms: _323  and  _324
REMARK  131  A    between atoms: _327  and  _329
REMARK  132  A    between atoms: _329  and  _330
REMARK  133  A    between atoms: _332  and  _334
REMARK  134  A    between atoms: _334  and  _335
REMARK  135  A    between atoms: _334  and  _337
REMARK  136  A    between atoms: _337  and  _338
REMARK  137  A    between atoms: _341  and  _343
REMARK  138  A    between atoms: _343  and  _344
REMARK  139  A    between atoms: _343  and  _346
REMARK  140  A    between atoms: _346  and  _347
REMARK  141  A    between atoms: _353  and  _354
REMARK  142  A    between atoms: _359  and  _361
REMARK  143  A    between atoms: _361  and  _362
REMARK  144  A    between atoms: _361  and  _364
REMARK  145  A    between atoms: _364  and  _365
REMARK  146  A    between atoms: _365  and  _366
REMARK  147  A    between atoms: _366  and  _367
REMARK  148  A    between atoms: _376  and  _378
REMARK  149  A    between atoms: _378  and  _379
REMARK  150  A    between atoms: _378  and  _381
REMARK  151  A    between atoms: _381  and  _382
REMARK  152  A    between atoms: _384  and  _386
REMARK  153  A    between atoms: _386  and  _387
REMARK  154  A    between atoms: _389  and  _391
REMARK  155  A    between atoms: _391  and  _392
REMARK  156  A    between atoms: _391  and  _394
REMARK  157  A    between atoms: _394  and  _395
REMARK  158  A    between atoms: _398  and  _400
REMARK  159  A    between atoms: _400  and  _401
REMARK  160  A    between atoms: _404  and  _406
REMARK  161  A    between atoms: _406  and  _407
REMARK  162  A    between atoms: _406  and  _409
REMARK  163  A    between atoms: _409  and  _410
REMARK  164  A    between atoms: _413  and  _415
REMARK  165  A    between atoms: _415  and  _416
REMARK  166  A    between atoms: _415  and  _418
REMARK  167  A    between atoms: _420  and  _422
REMARK  168  A    between atoms: _422  and  _423
REMARK  169  A    between atoms: _422  and  _425
REMARK  170  A    between atoms: _425  and  _426
REMARK  171  A    between atoms: _426  and  _427
REMARK  172  A    between atoms: _427  and  _428
REMARK  173  A    between atoms: _437  and  _439
REMARK  174  A    between atoms: _439  and  _440
REMARK  175  A    between atoms: _443  and  _445
REMARK  176  A    between atoms: _445  and  _446
REMARK  177  A    between atoms: _445  and  _448
REMARK  178  A    between atoms: _448  and  _449
REMARK  179  A    between atoms: _449  and  _450
REMARK  180  A    between atoms: _455  and  _457
REMARK  181  A    between atoms: _457  and  _458
REMARK  182  A    between atoms: _457  and  _460
REMARK  183  A    between atoms: _460  and  _461
REMARK  184  A    between atoms: _464  and  _466
REMARK  185  A    between atoms: _466  and  _467
REMARK  186  A    between atoms: _466  and  _469
REMARK  187  A    between atoms: _469  and  _470
REMARK  188  A    between atoms: _470  and  _471
REMARK  189  A    between atoms: _471  and  _472
REMARK  190  A    between atoms: _481  and  _483
REMARK  191  A    between atoms: _483  and  _484
REMARK  192  A    between atoms: _486  and  _488
REMARK  193  A    between atoms: _488  and  _489
REMARK  194  A    between atoms: _488  and  _491
REMARK  195  A    between atoms: _491  and  _492
REMARK  196  A    between atoms: _495  and  _497
REMARK  197  A    between atoms: _497  and  _498
REMARK  198  A    between atoms: _500  and  _502
REMARK  199  A    between atoms: _502  and  _503
REMARK  200  A    between atoms: _505  and  _507
REMARK  201  A    between atoms: _507  and  _508
REMARK  202  A    between atoms: _507  and  _510
REMARK  203  A    between atoms: _510  and  _511
REMARK  204  A    between atoms: _516  and  _518
REMARK  205  A    between atoms: _518  and  _519
REMARK  206  A    between atoms: _521  and  _523
REMARK  207  A    between atoms: _523  and  _524
REMARK  208  A    between atoms: _523  and  _526
REMARK  209  A    between atoms: _526  and  _527
REMARK  210  A    between atoms: _529  and  _531
REMARK  211  A    between atoms: _531  and  _532
REMARK  212  A    between atoms: _531  and  _534
REMARK  213  A    between atoms: _534  and  _535
REMARK  214  A    between atoms: _537  and  _539
REMARK  215  A    between atoms: _539  and  _540
REMARK  216  A    between atoms: _542  and  _544
REMARK  217  A    between atoms: _544  and  _545
REMARK  218  A    between atoms: _547  and  _549
REMARK  219  A    between atoms: _549  and  _550
REMARK  220  A    between atoms: _549  and  _552
REMARK  221  A    between atoms: _552  and  _553
REMARK                            x       y       z     vdW  Elec       q    Type
REMARK                         _______ _______ _______ _____ _____    ______ ____
ROOT
ATOM      1  CA  LEU A   1      25.898   7.270  32.795  0.00  0.00    +0.133 C 
ENDROOT
BRANCH   1   2
ATOM      2  N   LEU A   1      26.203   6.670  34.089  0.00  0.00    -0.239 NA
ATOM      3  H   LEU A   1      26.710   7.211  34.818  0.00  0.00    +0.142 HD
ENDBRANCH   1   2
BRANCH   1   4
ATOM      4  C   LEU A   1      27.177   7.291  31.951  0.00  0.00    +0.224 C 
ATOM      5  O   LEU A   1      28.266   7.240  32.483  0.00  0.00    -0.287 OA
ENDBRANCH   1   4
BRANCH   1   6
ATOM      6  CB  LEU A   1      25.436   8.736  32.923  0.00  0.00    +0.025 C 
BRANCH   6   7
ATOM      7  CG  LEU A   1      24.020   8.988  33.487  0.00  0.00    +0.002 C 
ATOM      8  CD2 LEU A   1      23.919   8.477  34.992  0.00  0.00    +0.000 C 
ATOM      9  CD1 LEU A   1      23.727  10.476  33.413  0.00  0.00    +0.000 C 
ENDBRANCH   6   7
ENDBRANCH   1   6
TORSDOF 4
REMARK  Name = ../refined-set-2016/2py4/2py4_pocket.pdb
REMARK  221 active torsions:
REMARK  status: ('A' for Active; 'I' for Inactive)
REMARK    1  A    between atoms: _1  and  _3
REMARK    2  A    between atoms: _3  and  _4
REMARK    3  A    between atoms: _3  and  _6
REMARK    4  A    between atoms: _6  and  _7
REMARK    5  A    between atoms: _10  and  _12
REMARK    6  A    between atoms: _12  and  _13
REMARK    7  A    between atoms: _12  and  _15
REMARK    8  A    between atoms: _15  and  _16
REMARK    9  A    between atoms: _19  and  _21
REMARK   10  A    between atoms: _21  and  _22
REMARK   11  A    between atoms: _21  and  _24
REMARK   12  A    between atoms: _27  and  _29
REMARK   13  A    between atoms: _29  and  _30
REMARK   14  A    between atoms: _29  and  _32
REMARK   15  A    between atoms: _32  and  _33
REMARK   16  A    between atoms: _36  and  _38
REMARK   17  A    between atoms: _38  and  _39
REMARK   18  A    between atoms: _38  and  _41
REMARK   19  A    between atoms: _44  and  _46
REMARK   20  A    between atoms: _46  and  _47
REMARK   21  A    between atoms: _46  and  _49
REMARK   22  A    between atoms: _52  and  _54
REMARK   23  A    between atoms: _54  and  _55
REMARK   24  A    between atoms: _54  and  _57
REMARK   25  A    between atoms: _60  and  _62
REMARK   26  A    between atoms: _62  and  _63
REMARK   27  A    between atoms: _62  and  _65
REMARK   28  A    between atoms: _68  and  _70
REMARK   29  A    between atoms: _70  and  _71
REMARK   30  A    between atoms: _73  and  _75
REMARK   31  A    between atoms: _75  and  _76
REMARK   32  A    between atoms: _75  and  _78
REMARK   33  A    between atoms: _78  and  _79
REMARK   34  A    between atoms: _82  and  _84
REMARK   35  A    between atoms: _84  and  _85
REMARK   36  A    between atoms: _84  and  _87
REMARK   37  A    between atoms: _90  and  _92
REMARK   38  A    between atoms: _92  and  _93
REMARK   39  A    between atoms: _92  and  _95
REMARK   40  A    between atoms: _95  and  _96
REMARK   41  A    between atoms: _101  and  _103
REMARK   42  A    between atoms: _103  and  _104
REMARK   43  A    between atoms: _103  and  _106
REMARK   44  A    between atoms: _106  and  _107
REMARK   45  A    between atoms: _110  and  _112
REMARK   46  A    between atoms: _112  and  _113
REMARK   47  A    between atoms: _112  and  _115
REMARK   48  A    between atoms: _118  and  _120
REMARK   49  A    between atoms: _120  and  _121
REMARK   50  A    between atoms: _120  and  _123
REMARK   51  A    between atoms: _123  and  _124
REMARK   52  A    between atoms: _129  and  _131
REMARK   53  A    between atoms: _131  and  _132
REMARK   54  A    between atoms: _131  and  _134
REMARK   55  A    between atoms: _134  and  _135
REMARK   56  A    between atoms: _138  and  _139
REMARK   57  A    between atoms: _144  and  _146
REMARK   58  A    between atoms: _146  and  _147
REMARK   59  A    between atoms: _149  and  _151
REMARK   60  A    between atoms: _151  and  _152
REMARK   61  A    between atoms: _151  and  _154
REMARK   62  A    between atoms: _154  and  _155
REMARK   63  A    between atoms: _158  and  _160
REMARK   64  A    between atoms: _160  and  _161
REMARK   65  A    between atoms: _160  and  _163
REMARK   66  A    between atoms: _163  and  _164
REMARK   67  A    between atoms: _167  and  _169
REMARK   68  A    between atoms: _169  and  _170
REMARK   69  A    between atoms: _169  and  _172
REMARK   70  A    between atoms: _172  and  _173
REMARK   71  A    between atoms: _176  and  _178
REMARK   72  A    between atoms: _178  and  _179
REMARK   73  A    between atoms: _182  and  _184
REMARK   74  A    between atoms: _184  and  _185
REMARK   75  A    between atoms: _187  and  _189
REMARK   76  A    between atoms: _189  and  _190
REMARK   77  A    between atoms: _189  and  _192
REMARK   78  A    between atoms: _192  and  _193
REMARK   79  A    between atoms: _198  and  _199
REMARK   80  A    between atoms: _201  and  _203
REMARK   81  A    between atoms: _203  and  _204
REMARK   82  A    between atoms: _203  and  _206
REMARK   83  A    between atoms: _206  and  _207
REMARK   84  A    between atoms: _207  and  _208
REMARK   85  A    between atoms: _208  and  _209
REMARK   86  A    between atoms: _218  and  _220
REMARK   87  A    between atoms: _220  and  _221
REMARK   88  A    between atoms: _223  and  _225
REMARK   89  A    between atoms: _225  and  _226
REMARK   90  A    between atoms: _225  and  _228
REMARK   91  A    between atoms: _228  and  _229
REMARK   92  A    between atoms: _229  and  _230
REMARK   93  A    between atoms: _233  and  _235
REMARK   94  A    between atoms: _235  and  _236
REMARK   95  A    between atoms: _235  and  _238
REMARK   96  A    between atoms: _238  and  _239
REMARK   97  A    between atoms: _242  and  _244
REMARK   98  A    between atoms: _244  and  _245
REMARK   99  A    between atoms: _244  and  _247
REMARK  100  A    between atoms: _247  and  _248
REMARK  101  A    between atoms: _248  and  _249
REMARK  102  A    between atoms: _249  and  _250
REMARK  103  A    between atoms: _250  and  _251
REMARK  104  A    between atoms: _255  and  _257
REMARK  105  A    between atoms: _257  and  _258
REMARK  106  A    between atoms: _257  and  _260
REMARK  107  A    between atoms: _263  and  _265
REMARK  108  A    between atoms: _265  and  _266
REMARK  109  A    between atoms: _269  and  _271
REMARK  110  A    between atoms: _271  and  _272
REMARK  111  A    between atoms: _271  and  _274
REMARK  112  A    between atoms: _274  and  _275
REMARK  113  A    between atoms: _278  and  _280
REMARK  114  A    between atoms: _280  and  _281
REMARK  115  A    between atoms: _280  and  _283
REMARK  116  A    between atoms: _283  and  _284
REMARK  117  A    between atoms: _284  and  _285
REMARK  118  A    between atoms: _285  and  _286
REMARK  119  A    between atoms: _295  and  _297
REMARK  120  A    between atoms: _297  and  _298
REMARK  121  A    between atoms: _301  and  _303
REMARK  122  A    between atoms: _303  and  _304
REMARK  123  A    between atoms: _303  and  _306
REMARK  124  A    between atoms: _306  and  _307
REMARK  125  A    between atoms: _312  and  _314
REMARK  126  A    between atoms: _314  and  _315
REMARK  127  A    between atoms: _314  and  _317
REMARK  128  A    between atoms: _317  and  _318
REMARK  129  A    between atoms: _321  and  _323
REMARK  130  A    between atoms: _323  and  _324
REMARK  131  A    between atoms: _327  and  _329
REMARK  132  A    between atoms: _329  and  _330
REMARK  133  A    between atoms: _332  and  _334
REMARK  134  A    between atoms: _334  and  _335
REMARK  135  A    between atoms: _334  and  _337
REMARK  136  A    between atoms: _337  and  _338
REMARK  137  A    between atoms: _341  and  _343
REMARK  138  A    between atoms: _343  and  _344
REMARK  139  A    between atoms: _343  and  _346
REMARK  140  A    between atoms: _346  and  _347
REMARK  141  A    between atoms: _353  and  _354
REMARK  142  A    between atoms: _359  and  _361
REMARK  143  A    between atoms: _361  and  _362
REMARK  144  A    between atoms: _361  and  _364
REMARK  145  A    between atoms: _364  and  _365
REMARK  146  A    between atoms: _365  and  _366
REMARK  147  A    between atoms: _366  and  _367
REMARK  148  A    between atoms: _376  and  _378
REMARK  149  A    between atoms: _378  and  _379
REMARK  150  A    between atoms: _378  and  _381
REMARK  151  A    between atoms: _381  and  _382
REMARK  152  A    between atoms: _384  and  _386
REMARK  153  A    between atoms: _386  and  _387
REMARK  154  A    between atoms: _389  and  _391
REMARK  155  A    between atoms: _391  and  _392
REMARK  156  A    between atoms: _391  and  _394
REMARK  157  A    between atoms: _394  and  _395
REMARK  158  A    between atoms: _398  and  _400
REMARK  159  A    between atoms: _400  and  _401
REMARK  160  A    between atoms: _404  and  _406
REMARK  161  A    between atoms: _406  and  _407
REMARK  162  A    between atoms: _406  and  _409
REMARK  163  A    between atoms: _409  and  _410
REMARK  164  A    between atoms: _413  and  _415
REMARK  165  A    between atoms: _415  and  _416
REMARK  166  A    between atoms: _415  and  _418
REMARK  167  A    between atoms: _420  and  _422
REMARK  168  A    between atoms: _422  and  _423
REMARK  169  A    between atoms: _422  and  _425
REMARK  170  A    between atoms: _425  and  _426
REMARK  171  A    between atoms: _426  and  _427
REMARK  172  A    between atoms: _427  and  _428
REMARK  173  A    between atoms: _437  and  _439
REMARK  174  A    between atoms: _439  and  _440
REMARK  175  A    between atoms: _443  and  _445
REMARK  176  A    between atoms: _445  and  _446
REMARK  177  A    between atoms: _445  and  _448
REMARK  178  A    between atoms: _448  and  _449
REMARK  179  A    between atoms: _449  and  _450
REMARK  180  A    between atoms: _455  and  _457
REMARK  181  A    between atoms: _457  and  _458
REMARK  182  A    between atoms: _457  and  _460
REMARK  183  A    between atoms: _460  and  _461
REMARK  184  A    between atoms: _464  and  _466
REMARK  185  A    between atoms: _466  and  _467
REMARK  186  A    between atoms: _466  and  _469
REMARK  187  A    between atoms: _469  and  _470
REMARK  188  A    between atoms: _470  and  _471
REMARK  189  A    between atoms: _471  and  _472
REMARK  190  A    between atoms: _481  and  _483
REMARK  191  A    between atoms: _483  and  _484
REMARK  192  A    between atoms: _486  and  _488
REMARK  193  A    between atoms: _488  and  _489
REMARK  194  A    between atoms: _488  and  _491
REMARK  195  A    between atoms: _491  and  _492
REMARK  196  A    between atoms: _495  and  _497
REMARK  197  A    between atoms: _497  and  _498
REMARK  198  A    between atoms: _500  and  _502
REMARK  199  A    between atoms: _502  and  _503
REMARK  200  A    between atoms: _505  and  _507
REMARK  201  A    between atoms: _507  and  _508
REMARK  202  A    between atoms: _507  and  _510
REMARK  203  A    between atoms: _510  and  _511
REMARK  204  A    between atoms: _516  and  _518
REMARK  205  A    between atoms: _518  and  _519
REMARK  206  A    between atoms: _521  and  _523
REMARK  207  A    between atoms: _523  and  _524
REMARK  208  A    between atoms: _523  and  _526
REMARK  209  A    between atoms: _526  and  _527
REMARK  210  A    between atoms: _529  and  _531
REMARK  211  A    between atoms: _531  and  _532
REMARK  212  A    between atoms: _531  and  _534
REMARK  213  A    between atoms: _534  and  _535
REMARK  214  A    between atoms: _537  and  _539
REMARK  215  A    between atoms: _539  and  _540
REMARK  216  A    between atoms: _542  and  _544
REMARK  217  A    between atoms: _544  and  _545
REMARK  218  A    between atoms: _547  and  _549
REMARK  219  A    between atoms: _549  and  _550
REMARK  220  A    between atoms: _549  and  _552
REMARK  221  A    between atoms: _552  and  _553
REMARK                            x       y       z     vdW  Elec       q    Type
REMARK                         _______ _______ _______ _____ _____    ______ ____
ROOT
ATOM      1  C   GLY A   5      11.120   7.670  41.828  0.00  0.00    +0.243 C 
ATOM      2  O   GLY A   5      10.341   6.992  42.517  0.00  0.00    -0.273 OA
ATOM      3  N   HIS A   6      12.206   8.264  42.348  0.00  0.00    -0.297 N 
ATOM      4  H   HIS A   6      12.844   8.806  41.730  0.00  0.00    +0.150 HD
ENDROOT
BRANCH   3   5
ATOM      5  CA  HIS A   6      12.500   8.155  43.781  0.00  0.00    +0.155 C 
BRANCH   5   6
ATOM      6  C   HIS A   6      12.348   6.742  44.276  0.00  0.00    +0.241 C 
ATOM      7  O   HIS A   6      11.812   6.469  45.338  0.00  0.00    -0.273 OA
ATOM      8  N   GLY A   7      12.932   5.846  43.500  0.00  0.00    -0.295 N 
ATOM      9  H   GLY A   7      13.222   6.111  42.537  0.00  0.00    +0.150 HD
BRANCH   8  10
ATOM     10  CA  GLY A   7      13.178   4.467  43.986  0.00  0.00    +0.176 C 
BRANCH  10  11
ATOM     11  C   GLY A   7      12.093   3.527  43.468  0.00  0.00    +0.243 C 
ATOM     12  O   GLY A   7      12.016   2.349  43.883  0.00  0.00    -0.273 OA
ATOM     13  N   SER A   8      11.285   4.008  42.516  0.00  0.00    -0.295 N 
ATOM     14  H   SER A   8      11.462   4.948  42.108  0.00  0.00    +0.150 HD
BRANCH  13  15
ATOM     15  CA  SER A   8      10.134   3.197  42.042  0.00  0.00    +0.178 C 
BRANCH  15  16
ATOM     16  C   SER A   8      10.561   1.836  41.461  0.00  0.00    +0.243 C 
ATOM     17  O   SER A   8       9.728   0.901  41.362  0.00  0.00    -0.273 OA
ATOM     18  N   SER A   9      11.813   1.712  41.008  0.00  0.00    -0.295 N 
ATOM     19  H   SER A   9      12.480   2.505  41.099  0.00  0.00    +0.150 HD
BRANCH  18  20
ATOM     20  CA  SER A   9      12.248   0.450  40.379  0.00  0.00    +0.178 C 
BRANCH  20  21
ATOM     21  C   SER A   9      12.801  -0.549  41.404  0.00  0.00    +0.243 C 
ATOM     22  N   GLY A  10      12.835  -0.136  42.667  0.00  0.00    -0.295 N 
ATOM     23  H   GLY A  10      12.554   0.841  42.887  0.00  0.00    +0.150 HD
ATOM     24  O   SER A   9      13.139  -1.694  41.044  0.00  0.00    -0.273 OA
BRANCH  22  25
ATOM     25  CA  GLY A  10      13.260  -1.025  43.768  0.00  0.00    +0.176 C 
BRANCH  25  26
ATOM     26  C   GLY A  10      14.755  -1.157  43.859  0.00  0.00    +0.243 C 
ATOM     27  N   GLY A  11      15.216  -2.312  44.350  0.00  0.00    -0.296 N 
ATOM     28  H   GLY A  11      14.558  -3.036  44.702  0.00  0.00    +0.150 HD
ATOM     29  O   GLY A  10      15.518  -0.217  43.474  0.00  0.00    -0.273 OA
BRANCH  27  30
ATOM     30  CA  GLY A  11      16.692  -2.547  44.386  0.00  0.00    +0.163 C 
BRANCH  30  31
ATOM     31  C   GLY A  11      17.316  -2.364  45.727  0.00  0.00    +0.229 C 
ATOM     32  O   GLY A  11      18.534  -2.343  45.822  0.00  0.00    -0.286 OA
ENDBRANCH  30  31
ENDBRANCH  27  30
ENDBRANCH  25  26
ENDBRANCH  22  25
ENDBRANCH  20  21
BRANCH  20  33
ATOM     33  CB  SER A   9      13.270   0.642  39.255  0.00  0.00    +0.166 C 
BRANCH  33  34
ATOM     34  OG  SER A   9      14.550   1.093  39.796  0.00  0.00    -0.380 OA
ATOM     35  H   SER A   9      14.423   1.955  40.266  0.00  0.00    +0.211 HD
ENDBRANCH  33  34
ENDBRANCH  20  33
ENDBRANCH  18  20
ENDBRANCH  15  16
BRANCH  15  36
ATOM     36  CB  SER A   8       9.379   3.969  40.988  0.00  0.00    +0.166 C 
BRANCH  36  37
ATOM     37  OG  SER A   8      10.107   4.028  39.768  0.00  0.00    -0.380 OA
ATOM     38  H   SER A   8      10.976   4.476  39.925  0.00  0.00    +0.211 HD
ENDBRANCH  36  37
ENDBRANCH  15  36
ENDBRANCH  13  15
ENDBRANCH  10  11
ENDBRANCH   8  10
ENDBRANCH   5   6
BRANCH   5  39
ATOM     39  CB  HIS A   6      11.722   9.151  44.605  0.00  0.00    +0.076 C 
BRANCH  39  40
ATOM     40  CG  HIS A   6      12.005  10.533  44.168  0.00  0.00    +0.082 A 
ATOM     41  CD2 HIS A   6      13.067  11.337  44.405  0.00  0.00    +0.115 A 
ATOM     42  NE2 HIS A   6      12.892  12.463  43.626  0.00  0.00    -0.221 NA
ATOM     43  CE1 HIS A   6      11.774  12.335  42.925  0.00  0.00    +0.199 A 
ATOM     44  ND1 HIS A   6      11.236  11.153  43.199  0.00  0.00    -0.227 NA
ENDBRANCH  39  40
ENDBRANCH   5  39
ENDBRANCH   3   5
BRANCH   1  45
ATOM     45  CA  GLY A   5      10.806   7.956  40.381  0.00  0.00    +0.176 C 
BRANCH  45  47
ATOM     46  C   GLY A   4       9.094   7.374  38.767  0.00  0.00    +0.243 C 
ATOM     47  N   GLY A   5       9.434   7.511  40.040  0.00  0.00    -0.295 N 
ATOM     48  H   GLY A   5       8.745   7.308  40.792  0.00  0.00    +0.150 HD
ATOM     49  O   GLY A   4       9.844   7.733  37.805  0.00  0.00    -0.273 OA
BRANCH  46  50
ATOM     50  CA  GLY A   4       7.743   6.759  38.563  0.00  0.00    +0.176 C 
BRANCH  50  53
ATOM     51  C   ASP A   3       6.425   8.660  37.901  0.00  0.00    +0.241 C 
ATOM     52  O   ASP A   3       6.559   9.199  38.996  0.00  0.00    -0.273 OA
ATOM     53  N   GLY A   4       6.999   7.505  37.571  0.00  0.00    -0.295 N 
ATOM     54  H   GLY A   4       6.913   7.139  36.601  0.00  0.00    +0.150 HD
BRANCH  51  55
ATOM     55  CA  ASP A   3       5.581   9.288  36.827  0.00  0.00    +0.160 C 
BRANCH  55  57
ATOM     56  C   GLY A   2       5.909   8.325  34.680  0.00  0.00    +0.243 C 
ATOM     57  N   ASP A   3       5.165   8.362  35.784  0.00  0.00    -0.296 N 
ATOM     58  H   ASP A   3       4.326   7.758  35.896  0.00  0.00    +0.150 HD
ATOM     59  O   GLY A   2       6.930   9.027  34.548  0.00  0.00    -0.273 OA
BRANCH  56  60
ATOM     60  CA  GLY A   2       5.481   7.372  33.571  0.00  0.00    +0.176 C 
BRANCH  60  63
ATOM     61  C   ARG A   1       7.356   5.853  33.946  0.00  0.00    +0.238 C 
ATOM     62  O   ARG A   1       7.074   5.751  35.123  0.00  0.00    -0.274 OA
ATOM     63  N   GLY A   2       6.616   6.573  33.093  0.00  0.00    -0.296 N 
ATOM     64  H   GLY A   2       6.848   6.566  32.079  0.00  0.00    +0.150 HD
BRANCH  61  65
ATOM     65  CA  ARG A   1       8.545   5.101  33.400  0.00  0.00    +0.145 C 
BRANCH  65  66
ATOM     66  N   ARG A   1       8.281   4.577  32.073  0.00  0.00    -0.238 NA
ATOM     67  H   ARG A   1       8.765   4.975  31.243  0.00  0.00    +0.142 HD
ENDBRANCH  65  66
BRANCH  65  68
ATOM     68  CB  ARG A   1       9.741   6.055  33.357  0.00  0.00    +0.030 C 
BRANCH  68  69
ATOM     69  CG  ARG A   1      10.032   6.753  34.679  0.00  0.00    +0.045 C 
BRANCH  69  70
ATOM     70  CD  ARG A   1      11.444   7.337  34.662  0.00  0.00    +0.174 C 
BRANCH  70  71
ATOM     71  NE  ARG A   1      12.494   6.332  34.869  0.00  0.00    -0.265 N 
ATOM     72  CZ  ARG A   1      12.782   5.838  36.082  0.00  0.00    +0.342 C 
ATOM     73  NH2 ARG A   1      12.104   6.256  37.176  0.00  0.00    -0.292 N 
ATOM     74 HH21 ARG A   1      12.336   5.866  38.112  0.00  0.00    +0.255 HD
ATOM     75 HH22 ARG A   1      11.351   6.967  37.081  0.00  0.00    +0.255 HD
ATOM     76  NH1 ARG A   1      13.757   4.936  36.196  0.00  0.00    -0.292 N 
ATOM     77 HH11 ARG A   1      13.994   4.542  37.129  0.00  0.00    +0.255 HD
ATOM     78 HH12 ARG A   1      14.280   4.626  35.352  0.00  0.00    +0.255 HD
ATOM     79  HE  ARG A   1      13.033   5.992  34.047  0.00  0.00    +0.259 HD
ENDBRANCH  70  71
ENDBRANCH  69  70
ENDBRANCH  68  69
ENDBRANCH  65  68
ENDBRANCH  61  65
ENDBRANCH  60  63
ENDBRANCH  56  60
ENDBRANCH  55  57
BRANCH  55  80
ATOM     80  CB  ASP A   3       4.389  10.067  37.385  0.00  0.00    +0.143 C 
BRANCH  80  81
ATOM     81  CG  ASP A   3       3.431   9.207  38.127  0.00  0.00    +0.367 C 
ATOM     82  OD2 ASP A   3       2.332   9.733  38.454  0.00  0.00    -0.246 OA
ATOM     83  OD1 ASP A   3       3.778   8.014  38.383  0.00  0.00    -0.246 OA
ENDBRANCH  80  81
ENDBRANCH  55  80
ENDBRANCH  51  55
ENDBRANCH  50  53
ENDBRANCH  46  50
ENDBRANCH  45  47
ENDBRANCH   1  45
TORSDOF 34
REMARK  Name = ../refined-set-2016/2py4/2py4_pocket.pdb
REMARK  221 active torsions:
REMARK  status: ('A' for Active; 'I' for Inactive)
REMARK    1  A    between atoms: _1  and  _3
REMARK    2  A    between atoms: _3  and  _4
REMARK    3  A    between atoms: _3  and  _6
REMARK    4  A    between atoms: _6  and  _7
REMARK    5  A    between atoms: _10  and  _12
REMARK    6  A    between atoms: _12  and  _13
REMARK    7  A    between atoms: _12  and  _15
REMARK    8  A    between atoms: _15  and  _16
REMARK    9  A    between atoms: _19  and  _21
REMARK   10  A    between atoms: _21  and  _22
REMARK   11  A    between atoms: _21  and  _24
REMARK   12  A    between atoms: _27  and  _29
REMARK   13  A    between atoms: _29  and  _30
REMARK   14  A    between atoms: _29  and  _32
REMARK   15  A    between atoms: _32  and  _33
REMARK   16  A    between atoms: _36  and  _38
REMARK   17  A    between atoms: _38  and  _39
REMARK   18  A    between atoms: _38  and  _41
REMARK   19  A    between atoms: _44  and  _46
REMARK   20  A    between atoms: _46  and  _47
REMARK   21  A    between atoms: _46  and  _49
REMARK   22  A    between atoms: _52  and  _54
REMARK   23  A    between atoms: _54  and  _55
REMARK   24  A    between atoms: _54  and  _57
REMARK   25  A    between atoms: _60  and  _62
REMARK   26  A    between atoms: _62  and  _63
REMARK   27  A    between atoms: _62  and  _65
REMARK   28  A    between atoms: _68  and  _70
REMARK   29  A    between atoms: _70  and  _71
REMARK   30  A    between atoms: _73  and  _75
REMARK   31  A    between atoms: _75  and  _76
REMARK   32  A    between atoms: _75  and  _78
REMARK   33  A    between atoms: _78  and  _79
REMARK   34  A    between atoms: _82  and  _84
REMARK   35  A    between atoms: _84  and  _85
REMARK   36  A    between atoms: _84  and  _87
REMARK   37  A    between atoms: _90  and  _92
REMARK   38  A    between atoms: _92  and  _93
REMARK   39  A    between atoms: _92  and  _95
REMARK   40  A    between atoms: _95  and  _96
REMARK   41  A    between atoms: _101  and  _103
REMARK   42  A    between atoms: _103  and  _104
REMARK   43  A    between atoms: _103  and  _106
REMARK   44  A    between atoms: _106  and  _107
REMARK   45  A    between atoms: _110  and  _112
REMARK   46  A    between atoms: _112  and  _113
REMARK   47  A    between atoms: _112  and  _115
REMARK   48  A    between atoms: _118  and  _120
REMARK   49  A    between atoms: _120  and  _121
REMARK   50  A    between atoms: _120  and  _123
REMARK   51  A    between atoms: _123  and  _124
REMARK   52  A    between atoms: _129  and  _131
REMARK   53  A    between atoms: _131  and  _132
REMARK   54  A    between atoms: _131  and  _134
REMARK   55  A    between atoms: _134  and  _135
REMARK   56  A    between atoms: _138  and  _139
REMARK   57  A    between atoms: _144  and  _146
REMARK   58  A    between atoms: _146  and  _147
REMARK   59  A    between atoms: _149  and  _151
REMARK   60  A    between atoms: _151  and  _152
REMARK   61  A    between atoms: _151  and  _154
REMARK   62  A    between atoms: _154  and  _155
REMARK   63  A    between atoms: _158  and  _160
REMARK   64  A    between atoms: _160  and  _161
REMARK   65  A    between atoms: _160  and  _163
REMARK   66  A    between atoms: _163  and  _164
REMARK   67  A    between atoms: _167  and  _169
REMARK   68  A    between atoms: _169  and  _170
REMARK   69  A    between atoms: _169  and  _172
REMARK   70  A    between atoms: _172  and  _173
REMARK   71  A    between atoms: _176  and  _178
REMARK   72  A    between atoms: _178  and  _179
REMARK   73  A    between atoms: _182  and  _184
REMARK   74  A    between atoms: _184  and  _185
REMARK   75  A    between atoms: _187  and  _189
REMARK   76  A    between atoms: _189  and  _190
REMARK   77  A    between atoms: _189  and  _192
REMARK   78  A    between atoms: _192  and  _193
REMARK   79  A    between atoms: _198  and  _199
REMARK   80  A    between atoms: _201  and  _203
REMARK   81  A    between atoms: _203  and  _204
REMARK   82  A    between atoms: _203  and  _206
REMARK   83  A    between atoms: _206  and  _207
REMARK   84  A    between atoms: _207  and  _208
REMARK   85  A    between atoms: _208  and  _209
REMARK   86  A    between atoms: _218  and  _220
REMARK   87  A    between atoms: _220  and  _221
REMARK   88  A    between atoms: _223  and  _225
REMARK   89  A    between atoms: _225  and  _226
REMARK   90  A    between atoms: _225  and  _228
REMARK   91  A    between atoms: _228  and  _229
REMARK   92  A    between atoms: _229  and  _230
REMARK   93  A    between atoms: _233  and  _235
REMARK   94  A    between atoms: _235  and  _236
REMARK   95  A    between atoms: _235  and  _238
REMARK   96  A    between atoms: _238  and  _239
REMARK   97  A    between atoms: _242  and  _244
REMARK   98  A    between atoms: _244  and  _245
REMARK   99  A    between atoms: _244  and  _247
REMARK  100  A    between atoms: _247  and  _248
REMARK  101  A    between atoms: _248  and  _249
REMARK  102  A    between atoms: _249  and  _250
REMARK  103  A    between atoms: _250  and  _251
REMARK  104  A    between atoms: _255  and  _257
REMARK  105  A    between atoms: _257  and  _258
REMARK  106  A    between atoms: _257  and  _260
REMARK  107  A    between atoms: _263  and  _265
REMARK  108  A    between atoms: _265  and  _266
REMARK  109  A    between atoms: _269  and  _271
REMARK  110  A    between atoms: _271  and  _272
REMARK  111  A    between atoms: _271  and  _274
REMARK  112  A    between atoms: _274  and  _275
REMARK  113  A    between atoms: _278  and  _280
REMARK  114  A    between atoms: _280  and  _281
REMARK  115  A    between atoms: _280  and  _283
REMARK  116  A    between atoms: _283  and  _284
REMARK  117  A    between atoms: _284  and  _285
REMARK  118  A    between atoms: _285  and  _286
REMARK  119  A    between atoms: _295  and  _297
REMARK  120  A    between atoms: _297  and  _298
REMARK  121  A    between atoms: _301  and  _303
REMARK  122  A    between atoms: _303  and  _304
REMARK  123  A    between atoms: _303  and  _306
REMARK  124  A    between atoms: _306  and  _307
REMARK  125  A    between atoms: _312  and  _314
REMARK  126  A    between atoms: _314  and  _315
REMARK  127  A    between atoms: _314  and  _317
REMARK  128  A    between atoms: _317  and  _318
REMARK  129  A    between atoms: _321  and  _323
REMARK  130  A    between atoms: _323  and  _324
REMARK  131  A    between atoms: _327  and  _329
REMARK  132  A    between atoms: _329  and  _330
REMARK  133  A    between atoms: _332  and  _334
REMARK  134  A    between atoms: _334  and  _335
REMARK  135  A    between atoms: _334  and  _337
REMARK  136  A    between atoms: _337  and  _338
REMARK  137  A    between atoms: _341  and  _343
REMARK  138  A    between atoms: _343  and  _344
REMARK  139  A    between atoms: _343  and  _346
REMARK  140  A    between atoms: _346  and  _347
REMARK  141  A    between atoms: _353  and  _354
REMARK  142  A    between atoms: _359  and  _361
REMARK  143  A    between atoms: _361  and  _362
REMARK  144  A    between atoms: _361  and  _364
REMARK  145  A    between atoms: _364  and  _365
REMARK  146  A    between atoms: _365  and  _366
REMARK  147  A    between atoms: _366  and  _367
REMARK  148  A    between atoms: _376  and  _378
REMARK  149  A    between atoms: _378  and  _379
REMARK  150  A    between atoms: _378  and  _381
REMARK  151  A    between atoms: _381  and  _382
REMARK  152  A    between atoms: _384  and  _386
REMARK  153  A    between atoms: _386  and  _387
REMARK  154  A    between atoms: _389  and  _391
REMARK  155  A    between atoms: _391  and  _392
REMARK  156  A    between atoms: _391  and  _394
REMARK  157  A    between atoms: _394  and  _395
REMARK  158  A    between atoms: _398  and  _400
REMARK  159  A    between atoms: _400  and  _401
REMARK  160  A    between atoms: _404  and  _406
REMARK  161  A    between atoms: _406  and  _407
REMARK  162  A    between atoms: _406  and  _409
REMARK  163  A    between atoms: _409  and  _410
REMARK  164  A    between atoms: _413  and  _415
REMARK  165  A    between atoms: _415  and  _416
REMARK  166  A    between atoms: _415  and  _418
REMARK  167  A    between atoms: _420  and  _422
REMARK  168  A    between atoms: _422  and  _423
REMARK  169  A    between atoms: _422  and  _425
REMARK  170  A    between atoms: _425  and  _426
REMARK  171  A    between atoms: _426  and  _427
REMARK  172  A    between atoms: _427  and  _428
REMARK  173  A    between atoms: _437  and  _439
REMARK  174  A    between atoms: _439  and  _440
REMARK  175  A    between atoms: _443  and  _445
REMARK  176  A    between atoms: _445  and  _446
REMARK  177  A    between atoms: _445  and  _448
REMARK  178  A    between atoms: _448  and  _449
REMARK  179  A    between atoms: _449  and  _450
REMARK  180  A    between atoms: _455  and  _457
REMARK  181  A    between atoms: _457  and  _458
REMARK  182  A    between atoms: _457  and  _460
REMARK  183  A    between atoms: _460  and  _461
REMARK  184  A    between atoms: _464  and  _466
REMARK  185  A    between atoms: _466  and  _467
REMARK  186  A    between atoms: _466  and  _469
REMARK  187  A    between atoms: _469  and  _470
REMARK  188  A    between atoms: _470  and  _471
REMARK  189  A    between atoms: _471  and  _472
REMARK  190  A    between atoms: _481  and  _483
REMARK  191  A    between atoms: _483  and  _484
REMARK  192  A    between atoms: _486  and  _488
REMARK  193  A    between atoms: _488  and  _489
REMARK  194  A    between atoms: _488  and  _491
REMARK  195  A    between atoms: _491  and  _492
REMARK  196  A    between atoms: _495  and  _497
REMARK  197  A    between atoms: _497  and  _498
REMARK  198  A    between atoms: _500  and  _502
REMARK  199  A    between atoms: _502  and  _503
REMARK  200  A    between atoms: _505  and  _507
REMARK  201  A    between atoms: _507  and  _508
REMARK  202  A    between atoms: _507  and  _510
REMARK  203  A    between atoms: _510  and  _511
REMARK  204  A    between atoms: _516  and  _518
REMARK  205  A    between atoms: _518  and  _519
REMARK  206  A    between atoms: _521  and  _523
REMARK  207  A    between atoms: _523  and  _524
REMARK  208  A    between atoms: _523  and  _526
REMARK  209  A    between atoms: _526  and  _527
REMARK  210  A    between atoms: _529  and  _531
REMARK  211  A    between atoms: _531  and  _532
REMARK  212  A    between atoms: _531  and  _534
REMARK  213  A    between atoms: _534  and  _535
REMARK  214  A    between atoms: _537  and  _539
REMARK  215  A    between atoms: _539  and  _540
REMARK  216  A    between atoms: _542  and  _544
REMARK  217  A    between atoms: _544  and  _545
REMARK  218  A    between atoms: _547  and  _549
REMARK  219  A    between atoms: _549  and  _550
REMARK  220  A    between atoms: _549  and  _552
REMARK  221  A    between atoms: _552  and  _553
REMARK                            x       y       z     vdW  Elec       q    Type
REMARK                         _______ _______ _______ _____ _____    ______ ____
ROOT
ATOM      1  CA  LEU A   1      12.392   1.244  48.750  0.00  0.00    +0.172 C 
ENDROOT
BRANCH   1   2
ATOM      2  C   LEU A   1      11.076   0.504  48.562  0.00  0.00    +0.380 C 
ATOM      3  OXT LEU A   1      10.754  -0.446  49.284  0.00  0.00    -0.244 OA
ATOM      4  O   LEU A   1      10.330   0.834  47.634  0.00  0.00    -0.244 OA
ENDBRANCH   1   2
BRANCH   1   5
ATOM      5  N   LEU A   1      13.174   0.663  49.828  0.00  0.00    -0.236 NA
ATOM      6  H   LEU A   1      13.733  -0.197  49.658  0.00  0.00    +0.142 HD
ENDBRANCH   1   5
BRANCH   1   7
ATOM      7  CB  LEU A   1      13.173   1.200  47.423  0.00  0.00    +0.029 C 
BRANCH   7   8
ATOM      8  CG  LEU A   1      14.580   1.793  47.547  0.00  0.00    +0.002 C 
ATOM      9  CD2 LEU A   1      14.472   3.340  47.866  0.00  0.00    +0.000 C 
ATOM     10  CD1 LEU A   1      15.422   1.606  46.280  0.00  0.00    +0.000 C 
ENDBRANCH   7   8
ENDBRANCH   1   7
TORSDOF 4
REMARK  Name = ../refined-set-2016/2py4/2py4_pocket.pdb
REMARK  221 active torsions:
REMARK  status: ('A' for Active; 'I' for Inactive)
REMARK    1  A    between atoms: _1  and  _3
REMARK    2  A    between atoms: _3  and  _4
REMARK    3  A    between atoms: _3  and  _6
REMARK    4  A    between atoms: _6  and  _7
REMARK    5  A    between atoms: _10  and  _12
REMARK    6  A    between atoms: _12  and  _13
REMARK    7  A    between atoms: _12  and  _15
REMARK    8  A    between atoms: _15  and  _16
REMARK    9  A    between atoms: _19  and  _21
REMARK   10  A    between atoms: _21  and  _22
REMARK   11  A    between atoms: _21  and  _24
REMARK   12  A    between atoms: _27  and  _29
REMARK   13  A    between atoms: _29  and  _30
REMARK   14  A    between atoms: _29  and  _32
REMARK   15  A    between atoms: _32  and  _33
REMARK   16  A    between atoms: _36  and  _38
REMARK   17  A    between atoms: _38  and  _39
REMARK   18  A    between atoms: _38  and  _41
REMARK   19  A    between atoms: _44  and  _46
REMARK   20  A    between atoms: _46  and  _47
REMARK   21  A    between atoms: _46  and  _49
REMARK   22  A    between atoms: _52  and  _54
REMARK   23  A    between atoms: _54  and  _55
REMARK   24  A    between atoms: _54  and  _57
REMARK   25  A    between atoms: _60  and  _62
REMARK   26  A    between atoms: _62  and  _63
REMARK   27  A    between atoms: _62  and  _65
REMARK   28  A    between atoms: _68  and  _70
REMARK   29  A    between atoms: _70  and  _71
REMARK   30  A    between atoms: _73  and  _75
REMARK   31  A    between atoms: _75  and  _76
REMARK   32  A    between atoms: _75  and  _78
REMARK   33  A    between atoms: _78  and  _79
REMARK   34  A    between atoms: _82  and  _84
REMARK   35  A    between atoms: _84  and  _85
REMARK   36  A    between atoms: _84  and  _87
REMARK   37  A    between atoms: _90  and  _92
REMARK   38  A    between atoms: _92  and  _93
REMARK   39  A    between atoms: _92  and  _95
REMARK   40  A    between atoms: _95  and  _96
REMARK   41  A    between atoms: _101  and  _103
REMARK   42  A    between atoms: _103  and  _104
REMARK   43  A    between atoms: _103  and  _106
REMARK   44  A    between atoms: _106  and  _107
REMARK   45  A    between atoms: _110  and  _112
REMARK   46  A    between atoms: _112  and  _113
REMARK   47  A    between atoms: _112  and  _115
REMARK   48  A    between atoms: _118  and  _120
REMARK   49  A    between atoms: _120  and  _121
REMARK   50  A    between atoms: _120  and  _123
REMARK   51  A    between atoms: _123  and  _124
REMARK   52  A    between atoms: _129  and  _131
REMARK   53  A    between atoms: _131  and  _132
REMARK   54  A    between atoms: _131  and  _134
REMARK   55  A    between atoms: _134  and  _135
REMARK   56  A    between atoms: _138  and  _139
REMARK   57  A    between atoms: _144  and  _146
REMARK   58  A    between atoms: _146  and  _147
REMARK   59  A    between atoms: _149  and  _151
REMARK   60  A    between atoms: _151  and  _152
REMARK   61  A    between atoms: _151  and  _154
REMARK   62  A    between atoms: _154  and  _155
REMARK   63  A    between atoms: _158  and  _160
REMARK   64  A    between atoms: _160  and  _161
REMARK   65  A    between atoms: _160  and  _163
REMARK   66  A    between atoms: _163  and  _164
REMARK   67  A    between atoms: _167  and  _169
REMARK   68  A    between atoms: _169  and  _170
REMARK   69  A    between atoms: _169  and  _172
REMARK   70  A    between atoms: _172  and  _173
REMARK   71  A    between atoms: _176  and  _178
REMARK   72  A    between atoms: _178  and  _179
REMARK   73  A    between atoms: _182  and  _184
REMARK   74  A    between atoms: _184  and  _185
REMARK   75  A    between atoms: _187  and  _189
REMARK   76  A    between atoms: _189  and  _190
REMARK   77  A    between atoms: _189  and  _192
REMARK   78  A    between atoms: _192  and  _193
REMARK   79  A    between atoms: _198  and  _199
REMARK   80  A    between atoms: _201  and  _203
REMARK   81  A    between atoms: _203  and  _204
REMARK   82  A    between atoms: _203  and  _206
REMARK   83  A    between atoms: _206  and  _207
REMARK   84  A    between atoms: _207  and  _208
REMARK   85  A    between atoms: _208  and  _209
REMARK   86  A    between atoms: _218  and  _220
REMARK   87  A    between atoms: _220  and  _221
REMARK   88  A    between atoms: _223  and  _225
REMARK   89  A    between atoms: _225  and  _226
REMARK   90  A    between atoms: _225  and  _228
REMARK   91  A    between atoms: _228  and  _229
REMARK   92  A    between atoms: _229  and  _230
REMARK   93  A    between atoms: _233  and  _235
REMARK   94  A    between atoms: _235  and  _236
REMARK   95  A    between atoms: _235  and  _238
REMARK   96  A    between atoms: _238  and  _239
REMARK   97  A    between atoms: _242  and  _244
REMARK   98  A    between atoms: _244  and  _245
REMARK   99  A    between atoms: _244  and  _247
REMARK  100  A    between atoms: _247  and  _248
REMARK  101  A    between atoms: _248  and  _249
REMARK  102  A    between atoms: _249  and  _250
REMARK  103  A    between atoms: _250  and  _251
REMARK  104  A    between atoms: _255  and  _257
REMARK  105  A    between atoms: _257  and  _258
REMARK  106  A    between atoms: _257  and  _260
REMARK  107  A    between atoms: _263  and  _265
REMARK  108  A    between atoms: _265  and  _266
REMARK  109  A    between atoms: _269  and  _271
REMARK  110  A    between atoms: _271  and  _272
REMARK  111  A    between atoms: _271  and  _274
REMARK  112  A    between atoms: _274  and  _275
REMARK  113  A    between atoms: _278  and  _280
REMARK  114  A    between atoms: _280  and  _281
REMARK  115  A    between atoms: _280  and  _283
REMARK  116  A    between atoms: _283  and  _284
REMARK  117  A    between atoms: _284  and  _285
REMARK  118  A    between atoms: _285  and  _286
REMARK  119  A    between atoms: _295  and  _297
REMARK  120  A    between atoms: _297  and  _298
REMARK  121  A    between atoms: _301  and  _303
REMARK  122  A    between atoms: _303  and  _304
REMARK  123  A    between atoms: _303  and  _306
REMARK  124  A    between atoms: _306  and  _307
REMARK  125  A    between atoms: _312  and  _314
REMARK  126  A    between atoms: _314  and  _315
REMARK  127  A    between atoms: _314  and  _317
REMARK  128  A    between atoms: _317  and  _318
REMARK  129  A    between atoms: _321  and  _323
REMARK  130  A    between atoms: _323  and  _324
REMARK  131  A    between atoms: _327  and  _329
REMARK  132  A    between atoms: _329  and  _330
REMARK  133  A    between atoms: _332  and  _334
REMARK  134  A    between atoms: _334  and  _335
REMARK  135  A    between atoms: _334  and  _337
REMARK  136  A    between atoms: _337  and  _338
REMARK  137  A    between atoms: _341  and  _343
REMARK  138  A    between atoms: _343  and  _344
REMARK  139  A    between atoms: _343  and  _346
REMARK  140  A    between atoms: _346  and  _347
REMARK  141  A    between atoms: _353  and  _354
REMARK  142  A    between atoms: _359  and  _361
REMARK  143  A    between atoms: _361  and  _362
REMARK  144  A    between atoms: _361  and  _364
REMARK  145  A    between atoms: _364  and  _365
REMARK  146  A    between atoms: _365  and  _366
REMARK  147  A    between atoms: _366  and  _367
REMARK  148  A    between atoms: _376  and  _378
REMARK  149  A    between atoms: _378  and  _379
REMARK  150  A    between atoms: _378  and  _381
REMARK  151  A    between atoms: _381  and  _382
REMARK  152  A    between atoms: _384  and  _386
REMARK  153  A    between atoms: _386  and  _387
REMARK  154  A    between atoms: _389  and  _391
REMARK  155  A    between atoms: _391  and  _392
REMARK  156  A    between atoms: _391  and  _394
REMARK  157  A    between atoms: _394  and  _395
REMARK  158  A    between atoms: _398  and  _400
REMARK  159  A    between atoms: _400  and  _401
REMARK  160  A    between atoms: _404  and  _406
REMARK  161  A    between atoms: _406  and  _407
REMARK  162  A    between atoms: _406  and  _409
REMARK  163  A    between atoms: _409  and  _410
REMARK  164  A    between atoms: _413  and  _415
REMARK  165  A    between atoms: _415  and  _416
REMARK  166  A    between atoms: _415  and  _418
REMARK  167  A    between atoms: _420  and  _422
REMARK  168  A    between atoms: _422  and  _423
REMARK  169  A    between atoms: _422  and  _425
REMARK  170  A    between atoms: _425  and  _426
REMARK  171  A    between atoms: _426  and  _427
REMARK  172  A    between atoms: _427  and  _428
REMARK  173  A    between atoms: _437  and  _439
REMARK  174  A    between atoms: _439  and  _440
REMARK  175  A    between atoms: _443  and  _445
REMARK  176  A    between atoms: _445  and  _446
REMARK  177  A    between atoms: _445  and  _448
REMARK  178  A    between atoms: _448  and  _449
REMARK  179  A    between atoms: _449  and  _450
REMARK  180  A    between atoms: _455  and  _457
REMARK  181  A    between atoms: _457  and  _458
REMARK  182  A    between atoms: _457  and  _460
REMARK  183  A    between atoms: _460  and  _461
REMARK  184  A    between atoms: _464  and  _466
REMARK  185  A    between atoms: _466  and  _467
REMARK  186  A    between atoms: _466  and  _469
REMARK  187  A    between atoms: _469  and  _470
REMARK  188  A    between atoms: _470  and  _471
REMARK  189  A    between atoms: _471  and  _472
REMARK  190  A    between atoms: _481  and  _483
REMARK  191  A    between atoms: _483  and  _484
REMARK  192  A    between atoms: _486  and  _488
REMARK  193  A    between atoms: _488  and  _489
REMARK  194  A    between atoms: _488  and  _491
REMARK  195  A    between atoms: _491  and  _492
REMARK  196  A    between atoms: _495  and  _497
REMARK  197  A    between atoms: _497  and  _498
REMARK  198  A    between atoms: _500  and  _502
REMARK  199  A    between atoms: _502  and  _503
REMARK  200  A    between atoms: _505  and  _507
REMARK  201  A    between atoms: _507  and  _508
REMARK  202  A    between atoms: _507  and  _510
REMARK  203  A    between atoms: _510  and  _511
REMARK  204  A    between atoms: _516  and  _518
REMARK  205  A    between atoms: _518  and  _519
REMARK  206  A    between atoms: _521  and  _523
REMARK  207  A    between atoms: _523  and  _524
REMARK  208  A    between atoms: _523  and  _526
REMARK  209  A    between atoms: _526  and  _527
REMARK  210  A    between atoms: _529  and  _531
REMARK  211  A    between atoms: _531  and  _532
REMARK  212  A    between atoms: _531  and  _534
REMARK  213  A    between atoms: _534  and  _535
REMARK  214  A    between atoms: _537  and  _539
REMARK  215  A    between atoms: _539  and  _540
REMARK  216  A    between atoms: _542  and  _544
REMARK  217  A    between atoms: _544  and  _545
REMARK  218  A    between atoms: _547  and  _549
REMARK  219  A    between atoms: _549  and  _550
REMARK  220  A    between atoms: _549  and  _552
REMARK  221  A    between atoms: _552  and  _553
REMARK                            x       y       z     vdW  Elec       q    Type
REMARK                         _______ _______ _______ _____ _____    ______ ____
ROOT
ATOM      1 MG   UNL     1      16.709   4.791  38.732  0.00  0.00    +0.000 Mg
ATOM      2  O   UNL     1      16.723   2.682  38.623  0.00  0.00    +0.000 OA
ATOM      3  O   UNL     1      18.822   4.672  38.603  0.00  0.00    +0.000 OA
ENDROOT
TORSDOF 0
REMARK  Name = ../refined-set-2016/2py4/2py4_pocket.pdb
REMARK  221 active torsions:
REMARK  status: ('A' for Active; 'I' for Inactive)
REMARK    1  A    between atoms: _1  and  _3
REMARK    2  A    between atoms: _3  and  _4
REMARK    3  A    between atoms: _3  and  _6
REMARK    4  A    between atoms: _6  and  _7
REMARK    5  A    between atoms: _10  and  _12
REMARK    6  A    between atoms: _12  and  _13
REMARK    7  A    between atoms: _12  and  _15
REMARK    8  A    between atoms: _15  and  _16
REMARK    9  A    between atoms: _19  and  _21
REMARK   10  A    between atoms: _21  and  _22
REMARK   11  A    between atoms: _21  and  _24
REMARK   12  A    between atoms: _27  and  _29
REMARK   13  A    between atoms: _29  and  _30
REMARK   14  A    between atoms: _29  and  _32
REMARK   15  A    between atoms: _32  and  _33
REMARK   16  A    between atoms: _36  and  _38
REMARK   17  A    between atoms: _38  and  _39
REMARK   18  A    between atoms: _38  and  _41
REMARK   19  A    between atoms: _44  and  _46
REMARK   20  A    between atoms: _46  and  _47
REMARK   21  A    between atoms: _46  and  _49
REMARK   22  A    between atoms: _52  and  _54
REMARK   23  A    between atoms: _54  and  _55
REMARK   24  A    between atoms: _54  and  _57
REMARK   25  A    between atoms: _60  and  _62
REMARK   26  A    between atoms: _62  and  _63
REMARK   27  A    between atoms: _62  and  _65
REMARK   28  A    between atoms: _68  and  _70
REMARK   29  A    between atoms: _70  and  _71
REMARK   30  A    between atoms: _73  and  _75
REMARK   31  A    between atoms: _75  and  _76
REMARK   32  A    between atoms: _75  and  _78
REMARK   33  A    between atoms: _78  and  _79
REMARK   34  A    between atoms: _82  and  _84
REMARK   35  A    between atoms: _84  and  _85
REMARK   36  A    between atoms: _84  and  _87
REMARK   37  A    between atoms: _90  and  _92
REMARK   38  A    between atoms: _92  and  _93
REMARK   39  A    between atoms: _92  and  _95
REMARK   40  A    between atoms: _95  and  _96
REMARK   41  A    between atoms: _101  and  _103
REMARK   42  A    between atoms: _103  and  _104
REMARK   43  A    between atoms: _103  and  _106
REMARK   44  A    between atoms: _106  and  _107
REMARK   45  A    between atoms: _110  and  _112
REMARK   46  A    between atoms: _112  and  _113
REMARK   47  A    between atoms: _112  and  _115
REMARK   48  A    between atoms: _118  and  _120
REMARK   49  A    between atoms: _120  and  _121
REMARK   50  A    between atoms: _120  and  _123
REMARK   51  A    between atoms: _123  and  _124
REMARK   52  A    between atoms: _129  and  _131
REMARK   53  A    between atoms: _131  and  _132
REMARK   54  A    between atoms: _131  and  _134
REMARK   55  A    between atoms: _134  and  _135
REMARK   56  A    between atoms: _138  and  _139
REMARK   57  A    between atoms: _144  and  _146
REMARK   58  A    between atoms: _146  and  _147
REMARK   59  A    between atoms: _149  and  _151
REMARK   60  A    between atoms: _151  and  _152
REMARK   61  A    between atoms: _151  and  _154
REMARK   62  A    between atoms: _154  and  _155
REMARK   63  A    between atoms: _158  and  _160
REMARK   64  A    between atoms: _160  and  _161
REMARK   65  A    between atoms: _160  and  _163
REMARK   66  A    between atoms: _163  and  _164
REMARK   67  A    between atoms: _167  and  _169
REMARK   68  A    between atoms: _169  and  _170
REMARK   69  A    between atoms: _169  and  _172
REMARK   70  A    between atoms: _172  and  _173
REMARK   71  A    between atoms: _176  and  _178
REMARK   72  A    between atoms: _178  and  _179
REMARK   73  A    between atoms: _182  and  _184
REMARK   74  A    between atoms: _184  and  _185
REMARK   75  A    between atoms: _187  and  _189
REMARK   76  A    between atoms: _189  and  _190
REMARK   77  A    between atoms: _189  and  _192
REMARK   78  A    between atoms: _192  and  _193
REMARK   79  A    between atoms: _198  and  _199
REMARK   80  A    between atoms: _201  and  _203
REMARK   81  A    between atoms: _203  and  _204
REMARK   82  A    between atoms: _203  and  _206
REMARK   83  A    between atoms: _206  and  _207
REMARK   84  A    between atoms: _207  and  _208
REMARK   85  A    between atoms: _208  and  _209
REMARK   86  A    between atoms: _218  and  _220
REMARK   87  A    between atoms: _220  and  _221
REMARK   88  A    between atoms: _223  and  _225
REMARK   89  A    between atoms: _225  and  _226
REMARK   90  A    between atoms: _225  and  _228
REMARK   91  A    between atoms: _228  and  _229
REMARK   92  A    between atoms: _229  and  _230
REMARK   93  A    between atoms: _233  and  _235
REMARK   94  A    between atoms: _235  and  _236
REMARK   95  A    between atoms: _235  and  _238
REMARK   96  A    between atoms: _238  and  _239
REMARK   97  A    between atoms: _242  and  _244
REMARK   98  A    between atoms: _244  and  _245
REMARK   99  A    between atoms: _244  and  _247
REMARK  100  A    between atoms: _247  and  _248
REMARK  101  A    between atoms: _248  and  _249
REMARK  102  A    between atoms: _249  and  _250
REMARK  103  A    between atoms: _250  and  _251
REMARK  104  A    between atoms: _255  and  _257
REMARK  105  A    between atoms: _257  and  _258
REMARK  106  A    between atoms: _257  and  _260
REMARK  107  A    between atoms: _263  and  _265
REMARK  108  A    between atoms: _265  and  _266
REMARK  109  A    between atoms: _269  and  _271
REMARK  110  A    between atoms: _271  and  _272
REMARK  111  A    between atoms: _271  and  _274
REMARK  112  A    between atoms: _274  and  _275
REMARK  113  A    between atoms: _278  and  _280
REMARK  114  A    between atoms: _280  and  _281
REMARK  115  A    between atoms: _280  and  _283
REMARK  116  A    between atoms: _283  and  _284
REMARK  117  A    between atoms: _284  and  _285
REMARK  118  A    between atoms: _285  and  _286
REMARK  119  A    between atoms: _295  and  _297
REMARK  120  A    between atoms: _297  and  _298
REMARK  121  A    between atoms: _301  and  _303
REMARK  122  A    between atoms: _303  and  _304
REMARK  123  A    between atoms: _303  and  _306
REMARK  124  A    between atoms: _306  and  _307
REMARK  125  A    between atoms: _312  and  _314
REMARK  126  A    between atoms: _314  and  _315
REMARK  127  A    between atoms: _314  and  _317
REMARK  128  A    between atoms: _317  and  _318
REMARK  129  A    between atoms: _321  and  _323
REMARK  130  A    between atoms: _323  and  _324
REMARK  131  A    between atoms: _327  and  _329
REMARK  132  A    between atoms: _329  and  _330
REMARK  133  A    between atoms: _332  and  _334
REMARK  134  A    between atoms: _334  and  _335
REMARK  135  A    between atoms: _334  and  _337
REMARK  136  A    between atoms: _337  and  _338
REMARK  137  A    between atoms: _341  and  _343
REMARK  138  A    between atoms: _343  and  _344
REMARK  139  A    between atoms: _343  and  _346
REMARK  140  A    between atoms: _346  and  _347
REMARK  141  A    between atoms: _353  and  _354
REMARK  142  A    between atoms: _359  and  _361
REMARK  143  A    between atoms: _361  and  _362
REMARK  144  A    between atoms: _361  and  _364
REMARK  145  A    between atoms: _364  and  _365
REMARK  146  A    between atoms: _365  and  _366
REMARK  147  A    between atoms: _366  and  _367
REMARK  148  A    between atoms: _376  and  _378
REMARK  149  A    between atoms: _378  and  _379
REMARK  150  A    between atoms: _378  and  _381
REMARK  151  A    between atoms: _381  and  _382
REMARK  152  A    between atoms: _384  and  _386
REMARK  153  A    between atoms: _386  and  _387
REMARK  154  A    between atoms: _389  and  _391
REMARK  155  A    between atoms: _391  and  _392
REMARK  156  A    between atoms: _391  and  _394
REMARK  157  A    between atoms: _394  and  _395
REMARK  158  A    between atoms: _398  and  _400
REMARK  159  A    between atoms: _400  and  _401
REMARK  160  A    between atoms: _404  and  _406
REMARK  161  A    between atoms: _406  and  _407
REMARK  162  A    between atoms: _406  and  _409
REMARK  163  A    between atoms: _409  and  _410
REMARK  164  A    between atoms: _413  and  _415
REMARK  165  A    between atoms: _415  and  _416
REMARK  166  A    between atoms: _415  and  _418
REMARK  167  A    between atoms: _420  and  _422
REMARK  168  A    between atoms: _422  and  _423
REMARK  169  A    between atoms: _422  and  _425
REMARK  170  A    between atoms: _425  and  _426
REMARK  171  A    between atoms: _426  and  _427
REMARK  172  A    between atoms: _427  and  _428
REMARK  173  A    between atoms: _437  and  _439
REMARK  174  A    between atoms: _439  and  _440
REMARK  175  A    between atoms: _443  and  _445
REMARK  176  A    between atoms: _445  and  _446
REMARK  177  A    between atoms: _445  and  _448
REMARK  178  A    between atoms: _448  and  _449
REMARK  179  A    between atoms: _449  and  _450
REMARK  180  A    between atoms: _455  and  _457
REMARK  181  A    between atoms: _457  and  _458
REMARK  182  A    between atoms: _457  and  _460
REMARK  183  A    between atoms: _460  and  _461
REMARK  184  A    between atoms: _464  and  _466
REMARK  185  A    between atoms: _466  and  _467
REMARK  186  A    between atoms: _466  and  _469
REMARK  187  A    between atoms: _469  and  _470
REMARK  188  A    between atoms: _470  and  _471
REMARK  189  A    between atoms: _471  and  _472
REMARK  190  A    between atoms: _481  and  _483
REMARK  191  A    between atoms: _483  and  _484
REMARK  192  A    between atoms: _486  and  _488
REMARK  193  A    between atoms: _488  and  _489
REMARK  194  A    between atoms: _488  and  _491
REMARK  195  A    between atoms: _491  and  _492
REMARK  196  A    between atoms: _495  and  _497
REMARK  197  A    between atoms: _497  and  _498
REMARK  198  A    between atoms: _500  and  _502
REMARK  199  A    between atoms: _502  and  _503
REMARK  200  A    between atoms: _505  and  _507
REMARK  201  A    between atoms: _507  and  _508
REMARK  202  A    between atoms: _507  and  _510
REMARK  203  A    between atoms: _510  and  _511
REMARK  204  A    between atoms: _516  and  _518
REMARK  205  A    between atoms: _518  and  _519
REMARK  206  A    between atoms: _521  and  _523
REMARK  207  A    between atoms: _523  and  _524
REMARK  208  A    between atoms: _523  and  _526
REMARK  209  A    between atoms: _526  and  _527
REMARK  210  A    between atoms: _529  and  _531
REMARK  211  A    between atoms: _531  and  _532
REMARK  212  A    between atoms: _531  and  _534
REMARK  213  A    between atoms: _534  and  _535
REMARK  214  A    between atoms: _537  and  _539
REMARK  215  A    between atoms: _539  and  _540
REMARK  216  A    between atoms: _542  and  _544
REMARK  217  A    between atoms: _544  and  _545
REMARK  218  A    between atoms: _547  and  _549
REMARK  219  A    between atoms: _549  and  _550
REMARK  220  A    between atoms: _549  and  _552
REMARK  221  A    between atoms: _552  and  _553
REMARK                            x       y       z     vdW  Elec       q    Type
REMARK                         _______ _______ _______ _____ _____    ______ ____
ROOT
ATOM      1  O   HOH     1      17.248  16.091  43.926  0.00  0.00    +0.000 OA
ENDROOT
TORSDOF 0
REMARK  Name = ../refined-set-2016/2py4/2py4_pocket.pdb
REMARK  221 active torsions:
REMARK  status: ('A' for Active; 'I' for Inactive)
REMARK    1  A    between atoms: _1  and  _3
REMARK    2  A    between atoms: _3  and  _4
REMARK    3  A    between atoms: _3  and  _6
REMARK    4  A    between atoms: _6  and  _7
REMARK    5  A    between atoms: _10  and  _12
REMARK    6  A    between atoms: _12  and  _13
REMARK    7  A    between atoms: _12  and  _15
REMARK    8  A    between atoms: _15  and  _16
REMARK    9  A    between atoms: _19  and  _21
REMARK   10  A    between atoms: _21  and  _22
REMARK   11  A    between atoms: _21  and  _24
REMARK   12  A    between atoms: _27  and  _29
REMARK   13  A    between atoms: _29  and  _30
REMARK   14  A    between atoms: _29  and  _32
REMARK   15  A    between atoms: _32  and  _33
REMARK   16  A    between atoms: _36  and  _38
REMARK   17  A    between atoms: _38  and  _39
REMARK   18  A    between atoms: _38  and  _41
REMARK   19  A    between atoms: _44  and  _46
REMARK   20  A    between atoms: _46  and  _47
REMARK   21  A    between atoms: _46  and  _49
REMARK   22  A    between atoms: _52  and  _54
REMARK   23  A    between atoms: _54  and  _55
REMARK   24  A    between atoms: _54  and  _57
REMARK   25  A    between atoms: _60  and  _62
REMARK   26  A    between atoms: _62  and  _63
REMARK   27  A    between atoms: _62  and  _65
REMARK   28  A    between atoms: _68  and  _70
REMARK   29  A    between atoms: _70  and  _71
REMARK   30  A    between atoms: _73  and  _75
REMARK   31  A    between atoms: _75  and  _76
REMARK   32  A    between atoms: _75  and  _78
REMARK   33  A    between atoms: _78  and  _79
REMARK   34  A    between atoms: _82  and  _84
REMARK   35  A    between atoms: _84  and  _85
REMARK   36  A    between atoms: _84  and  _87
REMARK   37  A    between atoms: _90  and  _92
REMARK   38  A    between atoms: _92  and  _93
REMARK   39  A    between atoms: _92  and  _95
REMARK   40  A    between atoms: _95  and  _96
REMARK   41  A    between atoms: _101  and  _103
REMARK   42  A    between atoms: _103  and  _104
REMARK   43  A    between atoms: _103  and  _106
REMARK   44  A    between atoms: _106  and  _107
REMARK   45  A    between atoms: _110  and  _112
REMARK   46  A    between atoms: _112  and  _113
REMARK   47  A    between atoms: _112  and  _115
REMARK   48  A    between atoms: _118  and  _120
REMARK   49  A    between atoms: _120  and  _121
REMARK   50  A    between atoms: _120  and  _123
REMARK   51  A    between atoms: _123  and  _124
REMARK   52  A    between atoms: _129  and  _131
REMARK   53  A    between atoms: _131  and  _132
REMARK   54  A    between atoms: _131  and  _134
REMARK   55  A    between atoms: _134  and  _135
REMARK   56  A    between atoms: _138  and  _139
REMARK   57  A    between atoms: _144  and  _146
REMARK   58  A    between atoms: _146  and  _147
REMARK   59  A    between atoms: _149  and  _151
REMARK   60  A    between atoms: _151  and  _152
REMARK   61  A    between atoms: _151  and  _154
REMARK   62  A    between atoms: _154  and  _155
REMARK   63  A    between atoms: _158  and  _160
REMARK   64  A    between atoms: _160  and  _161
REMARK   65  A    between atoms: _160  and  _163
REMARK   66  A    between atoms: _163  and  _164
REMARK   67  A    between atoms: _167  and  _169
REMARK   68  A    between atoms: _169  and  _170
REMARK   69  A    between atoms: _169  and  _172
REMARK   70  A    between atoms: _172  and  _173
REMARK   71  A    between atoms: _176  and  _178
REMARK   72  A    between atoms: _178  and  _179
REMARK   73  A    between atoms: _182  and  _184
REMARK   74  A    between atoms: _184  and  _185
REMARK   75  A    between atoms: _187  and  _189
REMARK   76  A    between atoms: _189  and  _190
REMARK   77  A    between atoms: _189  and  _192
REMARK   78  A    between atoms: _192  and  _193
REMARK   79  A    between atoms: _198  and  _199
REMARK   80  A    between atoms: _201  and  _203
REMARK   81  A    between atoms: _203  and  _204
REMARK   82  A    between atoms: _203  and  _206
REMARK   83  A    between atoms: _206  and  _207
REMARK   84  A    between atoms: _207  and  _208
REMARK   85  A    between atoms: _208  and  _209
REMARK   86  A    between atoms: _218  and  _220
REMARK   87  A    between atoms: _220  and  _221
REMARK   88  A    between atoms: _223  and  _225
REMARK   89  A    between atoms: _225  and  _226
REMARK   90  A    between atoms: _225  and  _228
REMARK   91  A    between atoms: _228  and  _229
REMARK   92  A    between atoms: _229  and  _230
REMARK   93  A    between atoms: _233  and  _235
REMARK   94  A    between atoms: _235  and  _236
REMARK   95  A    between atoms: _235  and  _238
REMARK   96  A    between atoms: _238  and  _239
REMARK   97  A    between atoms: _242  and  _244
REMARK   98  A    between atoms: _244  and  _245
REMARK   99  A    between atoms: _244  and  _247
REMARK  100  A    between atoms: _247  and  _248
REMARK  101  A    between atoms: _248  and  _249
REMARK  102  A    between atoms: _249  and  _250
REMARK  103  A    between atoms: _250  and  _251
REMARK  104  A    between atoms: _255  and  _257
REMARK  105  A    between atoms: _257  and  _258
REMARK  106  A    between atoms: _257  and  _260
REMARK  107  A    between atoms: _263  and  _265
REMARK  108  A    between atoms: _265  and  _266
REMARK  109  A    between atoms: _269  and  _271
REMARK  110  A    between atoms: _271  and  _272
REMARK  111  A    between atoms: _271  and  _274
REMARK  112  A    between atoms: _274  and  _275
REMARK  113  A    between atoms: _278  and  _280
REMARK  114  A    between atoms: _280  and  _281
REMARK  115  A    between atoms: _280  and  _283
REMARK  116  A    between atoms: _283  and  _284
REMARK  117  A    between atoms: _284  and  _285
REMARK  118  A    between atoms: _285  and  _286
REMARK  119  A    between atoms: _295  and  _297
REMARK  120  A    between atoms: _297  and  _298
REMARK  121  A    between atoms: _301  and  _303
REMARK  122  A    between atoms: _303  and  _304
REMARK  123  A    between atoms: _303  and  _306
REMARK  124  A    between atoms: _306  and  _307
REMARK  125  A    between atoms: _312  and  _314
REMARK  126  A    between atoms: _314  and  _315
REMARK  127  A    between atoms: _314  and  _317
REMARK  128  A    between atoms: _317  and  _318
REMARK  129  A    between atoms: _321  and  _323
REMARK  130  A    between atoms: _323  and  _324
REMARK  131  A    between atoms: _327  and  _329
REMARK  132  A    between atoms: _329  and  _330
REMARK  133  A    between atoms: _332  and  _334
REMARK  134  A    between atoms: _334  and  _335
REMARK  135  A    between atoms: _334  and  _337
REMARK  136  A    between atoms: _337  and  _338
REMARK  137  A    between atoms: _341  and  _343
REMARK  138  A    between atoms: _343  and  _344
REMARK  139  A    between atoms: _343  and  _346
REMARK  140  A    between atoms: _346  and  _347
REMARK  141  A    between atoms: _353  and  _354
REMARK  142  A    between atoms: _359  and  _361
REMARK  143  A    between atoms: _361  and  _362
REMARK  144  A    between atoms: _361  and  _364
REMARK  145  A    between atoms: _364  and  _365
REMARK  146  A    between atoms: _365  and  _366
REMARK  147  A    between atoms: _366  and  _367
REMARK  148  A    between atoms: _376  and  _378
REMARK  149  A    between atoms: _378  and  _379
REMARK  150  A    between atoms: _378  and  _381
REMARK  151  A    between atoms: _381  and  _382
REMARK  152  A    between atoms: _384  and  _386
REMARK  153  A    between atoms: _386  and  _387
REMARK  154  A    between atoms: _389  and  _391
REMARK  155  A    between atoms: _391  and  _392
REMARK  156  A    between atoms: _391  and  _394
REMARK  157  A    between atoms: _394  and  _395
REMARK  158  A    between atoms: _398  and  _400
REMARK  159  A    between atoms: _400  and  _401
REMARK  160  A    between atoms: _404  and  _406
REMARK  161  A    between atoms: _406  and  _407
REMARK  162  A    between atoms: _406  and  _409
REMARK  163  A    between atoms: _409  and  _410
REMARK  164  A    between atoms: _413  and  _415
REMARK  165  A    between atoms: _415  and  _416
REMARK  166  A    between atoms: _415  and  _418
REMARK  167  A    between atoms: _420  and  _422
REMARK  168  A    between atoms: _422  and  _423
REMARK  169  A    between atoms: _422  and  _425
REMARK  170  A    between atoms: _425  and  _426
REMARK  171  A    between atoms: _426  and  _427
REMARK  172  A    between atoms: _427  and  _428
REMARK  173  A    between atoms: _437  and  _439
REMARK  174  A    between atoms: _439  and  _440
REMARK  175  A    between atoms: _443  and  _445
REMARK  176  A    between atoms: _445  and  _446
REMARK  177  A    between atoms: _445  and  _448
REMARK  178  A    between atoms: _448  and  _449
REMARK  179  A    between atoms: _449  and  _450
REMARK  180  A    between atoms: _455  and  _457
REMARK  181  A    between atoms: _457  and  _458
REMARK  182  A    between atoms: _457  and  _460
REMARK  183  A    between atoms: _460  and  _461
REMARK  184  A    between atoms: _464  and  _466
REMARK  185  A    between atoms: _466  and  _467
REMARK  186  A    between atoms: _466  and  _469
REMARK  187  A    between atoms: _469  and  _470
REMARK  188  A    between atoms: _470  and  _471
REMARK  189  A    between atoms: _471  and  _472
REMARK  190  A    between atoms: _481  and  _483
REMARK  191  A    between atoms: _483  and  _484
REMARK  192  A    between atoms: _486  and  _488
REMARK  193  A    between atoms: _488  and  _489
REMARK  194  A    between atoms: _488  and  _491
REMARK  195  A    between atoms: _491  and  _492
REMARK  196  A    between atoms: _495  and  _497
REMARK  197  A    between atoms: _497  and  _498
REMARK  198  A    between atoms: _500  and  _502
REMARK  199  A    between atoms: _502  and  _503
REMARK  200  A    between atoms: _505  and  _507
REMARK  201  A    between atoms: _507  and  _508
REMARK  202  A    between atoms: _507  and  _510
REMARK  203  A    between atoms: _510  and  _511
REMARK  204  A    between atoms: _516  and  _518
REMARK  205  A    between atoms: _518  and  _519
REMARK  206  A    between atoms: _521  and  _523
REMARK  207  A    between atoms: _523  and  _524
REMARK  208  A    between atoms: _523  and  _526
REMARK  209  A    between atoms: _526  and  _527
REMARK  210  A    between atoms: _529  and  _531
REMARK  211  A    between atoms: _531  and  _532
REMARK  212  A    between atoms: _531  and  _534
REMARK  213  A    between atoms: _534  and  _535
REMARK  214  A    between atoms: _537  and  _539
REMARK  215  A    between atoms: _539  and  _540
REMARK  216  A    between atoms: _542  and  _544
REMARK  217  A    between atoms: _544  and  _545
REMARK  218  A    between atoms: _547  and  _549
REMARK  219  A    between atoms: _549  and  _550
REMARK  220  A    between atoms: _549  and  _552
REMARK  221  A    between atoms: _552  and  _553
REMARK                            x       y       z     vdW  Elec       q    Type
REMARK                         _______ _______ _______ _____ _____    ______ ____
ROOT
ATOM      1  O   HOH     1       9.372  15.527  34.568  0.00  0.00    +0.000 OA
ENDROOT
TORSDOF 0
REMARK  Name = ../refined-set-2016/2py4/2py4_pocket.pdb
REMARK  221 active torsions:
REMARK  status: ('A' for Active; 'I' for Inactive)
REMARK    1  A    between atoms: _1  and  _3
REMARK    2  A    between atoms: _3  and  _4
REMARK    3  A    between atoms: _3  and  _6
REMARK    4  A    between atoms: _6  and  _7
REMARK    5  A    between atoms: _10  and  _12
REMARK    6  A    between atoms: _12  and  _13
REMARK    7  A    between atoms: _12  and  _15
REMARK    8  A    between atoms: _15  and  _16
REMARK    9  A    between atoms: _19  and  _21
REMARK   10  A    between atoms: _21  and  _22
REMARK   11  A    between atoms: _21  and  _24
REMARK   12  A    between atoms: _27  and  _29
REMARK   13  A    between atoms: _29  and  _30
REMARK   14  A    between atoms: _29  and  _32
REMARK   15  A    between atoms: _32  and  _33
REMARK   16  A    between atoms: _36  and  _38
REMARK   17  A    between atoms: _38  and  _39
REMARK   18  A    between atoms: _38  and  _41
REMARK   19  A    between atoms: _44  and  _46
REMARK   20  A    between atoms: _46  and  _47
REMARK   21  A    between atoms: _46  and  _49
REMARK   22  A    between atoms: _52  and  _54
REMARK   23  A    between atoms: _54  and  _55
REMARK   24  A    between atoms: _54  and  _57
REMARK   25  A    between atoms: _60  and  _62
REMARK   26  A    between atoms: _62  and  _63
REMARK   27  A    between atoms: _62  and  _65
REMARK   28  A    between atoms: _68  and  _70
REMARK   29  A    between atoms: _70  and  _71
REMARK   30  A    between atoms: _73  and  _75
REMARK   31  A    between atoms: _75  and  _76
REMARK   32  A    between atoms: _75  and  _78
REMARK   33  A    between atoms: _78  and  _79
REMARK   34  A    between atoms: _82  and  _84
REMARK   35  A    between atoms: _84  and  _85
REMARK   36  A    between atoms: _84  and  _87
REMARK   37  A    between atoms: _90  and  _92
REMARK   38  A    between atoms: _92  and  _93
REMARK   39  A    between atoms: _92  and  _95
REMARK   40  A    between atoms: _95  and  _96
REMARK   41  A    between atoms: _101  and  _103
REMARK   42  A    between atoms: _103  and  _104
REMARK   43  A    between atoms: _103  and  _106
REMARK   44  A    between atoms: _106  and  _107
REMARK   45  A    between atoms: _110  and  _112
REMARK   46  A    between atoms: _112  and  _113
REMARK   47  A    between atoms: _112  and  _115
REMARK   48  A    between atoms: _118  and  _120
REMARK   49  A    between atoms: _120  and  _121
REMARK   50  A    between atoms: _120  and  _123
REMARK   51  A    between atoms: _123  and  _124
REMARK   52  A    between atoms: _129  and  _131
REMARK   53  A    between atoms: _131  and  _132
REMARK   54  A    between atoms: _131  and  _134
REMARK   55  A    between atoms: _134  and  _135
REMARK   56  A    between atoms: _138  and  _139
REMARK   57  A    between atoms: _144  and  _146
REMARK   58  A    between atoms: _146  and  _147
REMARK   59  A    between atoms: _149  and  _151
REMARK   60  A    between atoms: _151  and  _152
REMARK   61  A    between atoms: _151  and  _154
REMARK   62  A    between atoms: _154  and  _155
REMARK   63  A    between atoms: _158  and  _160
REMARK   64  A    between atoms: _160  and  _161
REMARK   65  A    between atoms: _160  and  _163
REMARK   66  A    between atoms: _163  and  _164
REMARK   67  A    between atoms: _167  and  _169
REMARK   68  A    between atoms: _169  and  _170
REMARK   69  A    between atoms: _169  and  _172
REMARK   70  A    between atoms: _172  and  _173
REMARK   71  A    between atoms: _176  and  _178
REMARK   72  A    between atoms: _178  and  _179
REMARK   73  A    between atoms: _182  and  _184
REMARK   74  A    between atoms: _184  and  _185
REMARK   75  A    between atoms: _187  and  _189
REMARK   76  A    between atoms: _189  and  _190
REMARK   77  A    between atoms: _189  and  _192
REMARK   78  A    between atoms: _192  and  _193
REMARK   79  A    between atoms: _198  and  _199
REMARK   80  A    between atoms: _201  and  _203
REMARK   81  A    between atoms: _203  and  _204
REMARK   82  A    between atoms: _203  and  _206
REMARK   83  A    between atoms: _206  and  _207
REMARK   84  A    between atoms: _207  and  _208
REMARK   85  A    between atoms: _208  and  _209
REMARK   86  A    between atoms: _218  and  _220
REMARK   87  A    between atoms: _220  and  _221
REMARK   88  A    between atoms: _223  and  _225
REMARK   89  A    between atoms: _225  and  _226
REMARK   90  A    between atoms: _225  and  _228
REMARK   91  A    between atoms: _228  and  _229
REMARK   92  A    between atoms: _229  and  _230
REMARK   93  A    between atoms: _233  and  _235
REMARK   94  A    between atoms: _235  and  _236
REMARK   95  A    between atoms: _235  and  _238
REMARK   96  A    between atoms: _238  and  _239
REMARK   97  A    between atoms: _242  and  _244
REMARK   98  A    between atoms: _244  and  _245
REMARK   99  A    between atoms: _244  and  _247
REMARK  100  A    between atoms: _247  and  _248
REMARK  101  A    between atoms: _248  and  _249
REMARK  102  A    between atoms: _249  and  _250
REMARK  103  A    between atoms: _250  and  _251
REMARK  104  A    between atoms: _255  and  _257
REMARK  105  A    between atoms: _257  and  _258
REMARK  106  A    between atoms: _257  and  _260
REMARK  107  A    between atoms: _263  and  _265
REMARK  108  A    between atoms: _265  and  _266
REMARK  109  A    between atoms: _269  and  _271
REMARK  110  A    between atoms: _271  and  _272
REMARK  111  A    between atoms: _271  and  _274
REMARK  112  A    between atoms: _274  and  _275
REMARK  113  A    between atoms: _278  and  _280
REMARK  114  A    between atoms: _280  and  _281
REMARK  115  A    between atoms: _280  and  _283
REMARK  116  A    between atoms: _283  and  _284
REMARK  117  A    between atoms: _284  and  _285
REMARK  118  A    between atoms: _285  and  _286
REMARK  119  A    between atoms: _295  and  _297
REMARK  120  A    between atoms: _297  and  _298
REMARK  121  A    between atoms: _301  and  _303
REMARK  122  A    between atoms: _303  and  _304
REMARK  123  A    between atoms: _303  and  _306
REMARK  124  A    between atoms: _306  and  _307
REMARK  125  A    between atoms: _312  and  _314
REMARK  126  A    between atoms: _314  and  _315
REMARK  127  A    between atoms: _314  and  _317
REMARK  128  A    between atoms: _317  and  _318
REMARK  129  A    between atoms: _321  and  _323
REMARK  130  A    between atoms: _323  and  _324
REMARK  131  A    between atoms: _327  and  _329
REMARK  132  A    between atoms: _329  and  _330
REMARK  133  A    between atoms: _332  and  _334
REMARK  134  A    between atoms: _334  and  _335
REMARK  135  A    between atoms: _334  and  _337
REMARK  136  A    between atoms: _337  and  _338
REMARK  137  A    between atoms: _341  and  _343
REMARK  138  A    between atoms: _343  and  _344
REMARK  139  A    between atoms: _343  and  _346
REMARK  140  A    between atoms: _346  and  _347
REMARK  141  A    between atoms: _353  and  _354
REMARK  142  A    between atoms: _359  and  _361
REMARK  143  A    between atoms: _361  and  _362
REMARK  144  A    between atoms: _361  and  _364
REMARK  145  A    between atoms: _364  and  _365
REMARK  146  A    between atoms: _365  and  _366
REMARK  147  A    between atoms: _366  and  _367
REMARK  148  A    between atoms: _376  and  _378
REMARK  149  A    between atoms: _378  and  _379
REMARK  150  A    between atoms: _378  and  _381
REMARK  151  A    between atoms: _381  and  _382
REMARK  152  A    between atoms: _384  and  _386
REMARK  153  A    between atoms: _386  and  _387
REMARK  154  A    between atoms: _389  and  _391
REMARK  155  A    between atoms: _391  and  _392
REMARK  156  A    between atoms: _391  and  _394
REMARK  157  A    between atoms: _394  and  _395
REMARK  158  A    between atoms: _398  and  _400
REMARK  159  A    between atoms: _400  and  _401
REMARK  160  A    between atoms: _404  and  _406
REMARK  161  A    between atoms: _406  and  _407
REMARK  162  A    between atoms: _406  and  _409
REMARK  163  A    between atoms: _409  and  _410
REMARK  164  A    between atoms: _413  and  _415
REMARK  165  A    between atoms: _415  and  _416
REMARK  166  A    between atoms: _415  and  _418
REMARK  167  A    between atoms: _420  and  _422
REMARK  168  A    between atoms: _422  and  _423
REMARK  169  A    between atoms: _422  and  _425
REMARK  170  A    between atoms: _425  and  _426
REMARK  171  A    between atoms: _426  and  _427
REMARK  172  A    between atoms: _427  and  _428
REMARK  173  A    between atoms: _437  and  _439
REMARK  174  A    between atoms: _439  and  _440
REMARK  175  A    between atoms: _443  and  _445
REMARK  176  A    between atoms: _445  and  _446
REMARK  177  A    between atoms: _445  and  _448
REMARK  178  A    between atoms: _448  and  _449
REMARK  179  A    between atoms: _449  and  _450
REMARK  180  A    between atoms: _455  and  _457
REMARK  181  A    between atoms: _457  and  _458
REMARK  182  A    between atoms: _457  and  _460
REMARK  183  A    between atoms: _460  and  _461
REMARK  184  A    between atoms: _464  and  _466
REMARK  185  A    between atoms: _466  and  _467
REMARK  186  A    between atoms: _466  and  _469
REMARK  187  A    between atoms: _469  and  _470
REMARK  188  A    between atoms: _470  and  _471
REMARK  189  A    between atoms: _471  and  _472
REMARK  190  A    between atoms: _481  and  _483
REMARK  191  A    between atoms: _483  and  _484
REMARK  192  A    between atoms: _486  and  _488
REMARK  193  A    between atoms: _488  and  _489
REMARK  194  A    between atoms: _488  and  _491
REMARK  195  A    between atoms: _491  and  _492
REMARK  196  A    between atoms: _495  and  _497
REMARK  197  A    between atoms: _497  and  _498
REMARK  198  A    between atoms: _500  and  _502
REMARK  199  A    between atoms: _502  and  _503
REMARK  200  A    between atoms: _505  and  _507
REMARK  201  A    between atoms: _507  and  _508
REMARK  202  A    between atoms: _507  and  _510
REMARK  203  A    between atoms: _510  and  _511
REMARK  204  A    between atoms: _516  and  _518
REMARK  205  A    between atoms: _518  and  _519
REMARK  206  A    between atoms: _521  and  _523
REMARK  207  A    between atoms: _523  and  _524
REMARK  208  A    between atoms: _523  and  _526
REMARK  209  A    between atoms: _526  and  _527
REMARK  210  A    between atoms: _529  and  _531
REMARK  211  A    between atoms: _531  and  _532
REMARK  212  A    between atoms: _531  and  _534
REMARK  213  A    between atoms: _534  and  _535
REMARK  214  A    between atoms: _537  and  _539
REMARK  215  A    between atoms: _539  and  _540
REMARK  216  A    between atoms: _542  and  _544
REMARK  217  A    between atoms: _544  and  _545
REMARK  218  A    between atoms: _547  and  _549
REMARK  219  A    between atoms: _549  and  _550
REMARK  220  A    between atoms: _549  and  _552
REMARK  221  A    between atoms: _552  and  _553
REMARK                            x       y       z     vdW  Elec       q    Type
REMARK                         _______ _______ _______ _____ _____    ______ ____
ROOT
ATOM      1  O   HOH     1      18.902  11.043  40.839  0.00  0.00    +0.000 OA
ENDROOT
TORSDOF 0
REMARK  Name = ../refined-set-2016/2py4/2py4_pocket.pdb
REMARK  221 active torsions:
REMARK  status: ('A' for Active; 'I' for Inactive)
REMARK    1  A    between atoms: _1  and  _3
REMARK    2  A    between atoms: _3  and  _4
REMARK    3  A    between atoms: _3  and  _6
REMARK    4  A    between atoms: _6  and  _7
REMARK    5  A    between atoms: _10  and  _12
REMARK    6  A    between atoms: _12  and  _13
REMARK    7  A    between atoms: _12  and  _15
REMARK    8  A    between atoms: _15  and  _16
REMARK    9  A    between atoms: _19  and  _21
REMARK   10  A    between atoms: _21  and  _22
REMARK   11  A    between atoms: _21  and  _24
REMARK   12  A    between atoms: _27  and  _29
REMARK   13  A    between atoms: _29  and  _30
REMARK   14  A    between atoms: _29  and  _32
REMARK   15  A    between atoms: _32  and  _33
REMARK   16  A    between atoms: _36  and  _38
REMARK   17  A    between atoms: _38  and  _39
REMARK   18  A    between atoms: _38  and  _41
REMARK   19  A    between atoms: _44  and  _46
REMARK   20  A    between atoms: _46  and  _47
REMARK   21  A    between atoms: _46  and  _49
REMARK   22  A    between atoms: _52  and  _54
REMARK   23  A    between atoms: _54  and  _55
REMARK   24  A    between atoms: _54  and  _57
REMARK   25  A    between atoms: _60  and  _62
REMARK   26  A    between atoms: _62  and  _63
REMARK   27  A    between atoms: _62  and  _65
REMARK   28  A    between atoms: _68  and  _70
REMARK   29  A    between atoms: _70  and  _71
REMARK   30  A    between atoms: _73  and  _75
REMARK   31  A    between atoms: _75  and  _76
REMARK   32  A    between atoms: _75  and  _78
REMARK   33  A    between atoms: _78  and  _79
REMARK   34  A    between atoms: _82  and  _84
REMARK   35  A    between atoms: _84  and  _85
REMARK   36  A    between atoms: _84  and  _87
REMARK   37  A    between atoms: _90  and  _92
REMARK   38  A    between atoms: _92  and  _93
REMARK   39  A    between atoms: _92  and  _95
REMARK   40  A    between atoms: _95  and  _96
REMARK   41  A    between atoms: _101  and  _103
REMARK   42  A    between atoms: _103  and  _104
REMARK   43  A    between atoms: _103  and  _106
REMARK   44  A    between atoms: _106  and  _107
REMARK   45  A    between atoms: _110  and  _112
REMARK   46  A    between atoms: _112  and  _113
REMARK   47  A    between atoms: _112  and  _115
REMARK   48  A    between atoms: _118  and  _120
REMARK   49  A    between atoms: _120  and  _121
REMARK   50  A    between atoms: _120  and  _123
REMARK   51  A    between atoms: _123  and  _124
REMARK   52  A    between atoms: _129  and  _131
REMARK   53  A    between atoms: _131  and  _132
REMARK   54  A    between atoms: _131  and  _134
REMARK   55  A    between atoms: _134  and  _135
REMARK   56  A    between atoms: _138  and  _139
REMARK   57  A    between atoms: _144  and  _146
REMARK   58  A    between atoms: _146  and  _147
REMARK   59  A    between atoms: _149  and  _151
REMARK   60  A    between atoms: _151  and  _152
REMARK   61  A    between atoms: _151  and  _154
REMARK   62  A    between atoms: _154  and  _155
REMARK   63  A    between atoms: _158  and  _160
REMARK   64  A    between atoms: _160  and  _161
REMARK   65  A    between atoms: _160  and  _163
REMARK   66  A    between atoms: _163  and  _164
REMARK   67  A    between atoms: _167  and  _169
REMARK   68  A    between atoms: _169  and  _170
REMARK   69  A    between atoms: _169  and  _172
REMARK   70  A    between atoms: _172  and  _173
REMARK   71  A    between atoms: _176  and  _178
REMARK   72  A    between atoms: _178  and  _179
REMARK   73  A    between atoms: _182  and  _184
REMARK   74  A    between atoms: _184  and  _185
REMARK   75  A    between atoms: _187  and  _189
REMARK   76  A    between atoms: _189  and  _190
REMARK   77  A    between atoms: _189  and  _192
REMARK   78  A    between atoms: _192  and  _193
REMARK   79  A    between atoms: _198  and  _199
REMARK   80  A    between atoms: _201  and  _203
REMARK   81  A    between atoms: _203  and  _204
REMARK   82  A    between atoms: _203  and  _206
REMARK   83  A    between atoms: _206  and  _207
REMARK   84  A    between atoms: _207  and  _208
REMARK   85  A    between atoms: _208  and  _209
REMARK   86  A    between atoms: _218  and  _220
REMARK   87  A    between atoms: _220  and  _221
REMARK   88  A    between atoms: _223  and  _225
REMARK   89  A    between atoms: _225  and  _226
REMARK   90  A    between atoms: _225  and  _228
REMARK   91  A    between atoms: _228  and  _229
REMARK   92  A    between atoms: _229  and  _230
REMARK   93  A    between atoms: _233  and  _235
REMARK   94  A    between atoms: _235  and  _236
REMARK   95  A    between atoms: _235  and  _238
REMARK   96  A    between atoms: _238  and  _239
REMARK   97  A    between atoms: _242  and  _244
REMARK   98  A    between atoms: _244  and  _245
REMARK   99  A    between atoms: _244  and  _247
REMARK  100  A    between atoms: _247  and  _248
REMARK  101  A    between atoms: _248  and  _249
REMARK  102  A    between atoms: _249  and  _250
REMARK  103  A    between atoms: _250  and  _251
REMARK  104  A    between atoms: _255  and  _257
REMARK  105  A    between atoms: _257  and  _258
REMARK  106  A    between atoms: _257  and  _260
REMARK  107  A    between atoms: _263  and  _265
REMARK  108  A    between atoms: _265  and  _266
REMARK  109  A    between atoms: _269  and  _271
REMARK  110  A    between atoms: _271  and  _272
REMARK  111  A    between atoms: _271  and  _274
REMARK  112  A    between atoms: _274  and  _275
REMARK  113  A    between atoms: _278  and  _280
REMARK  114  A    between atoms: _280  and  _281
REMARK  115  A    between atoms: _280  and  _283
REMARK  116  A    between atoms: _283  and  _284
REMARK  117  A    between atoms: _284  and  _285
REMARK  118  A    between atoms: _285  and  _286
REMARK  119  A    between atoms: _295  and  _297
REMARK  120  A    between atoms: _297  and  _298
REMARK  121  A    between atoms: _301  and  _303
REMARK  122  A    between atoms: _303  and  _304
REMARK  123  A    between atoms: _303  and  _306
REMARK  124  A    between atoms: _306  and  _307
REMARK  125  A    between atoms: _312  and  _314
REMARK  126  A    between atoms: _314  and  _315
REMARK  127  A    between atoms: _314  and  _317
REMARK  128  A    between atoms: _317  and  _318
REMARK  129  A    between atoms: _321  and  _323
REMARK  130  A    between atoms: _323  and  _324
REMARK  131  A    between atoms: _327  and  _329
REMARK  132  A    between atoms: _329  and  _330
REMARK  133  A    between atoms: _332  and  _334
REMARK  134  A    between atoms: _334  and  _335
REMARK  135  A    between atoms: _334  and  _337
REMARK  136  A    between atoms: _337  and  _338
REMARK  137  A    between atoms: _341  and  _343
REMARK  138  A    between atoms: _343  and  _344
REMARK  139  A    between atoms: _343  and  _346
REMARK  140  A    between atoms: _346  and  _347
REMARK  141  A    between atoms: _353  and  _354
REMARK  142  A    between atoms: _359  and  _361
REMARK  143  A    between atoms: _361  and  _362
REMARK  144  A    between atoms: _361  and  _364
REMARK  145  A    between atoms: _364  and  _365
REMARK  146  A    between atoms: _365  and  _366
REMARK  147  A    between atoms: _366  and  _367
REMARK  148  A    between atoms: _376  and  _378
REMARK  149  A    between atoms: _378  and  _379
REMARK  150  A    between atoms: _378  and  _381
REMARK  151  A    between atoms: _381  and  _382
REMARK  152  A    between atoms: _384  and  _386
REMARK  153  A    between atoms: _386  and  _387
REMARK  154  A    between atoms: _389  and  _391
REMARK  155  A    between atoms: _391  and  _392
REMARK  156  A    between atoms: _391  and  _394
REMARK  157  A    between atoms: _394  and  _395
REMARK  158  A    between atoms: _398  and  _400
REMARK  159  A    between atoms: _400  and  _401
REMARK  160  A    between atoms: _404  and  _406
REMARK  161  A    between atoms: _406  and  _407
REMARK  162  A    between atoms: _406  and  _409
REMARK  163  A    between atoms: _409  and  _410
REMARK  164  A    between atoms: _413  and  _415
REMARK  165  A    between atoms: _415  and  _416
REMARK  166  A    between atoms: _415  and  _418
REMARK  167  A    between atoms: _420  and  _422
REMARK  168  A    between atoms: _422  and  _423
REMARK  169  A    between atoms: _422  and  _425
REMARK  170  A    between atoms: _425  and  _426
REMARK  171  A    between atoms: _426  and  _427
REMARK  172  A    between atoms: _427  and  _428
REMARK  173  A    between atoms: _437  and  _439
REMARK  174  A    between atoms: _439  and  _440
REMARK  175  A    between atoms: _443  and  _445
REMARK  176  A    between atoms: _445  and  _446
REMARK  177  A    between atoms: _445  and  _448
REMARK  178  A    between atoms: _448  and  _449
REMARK  179  A    between atoms: _449  and  _450
REMARK  180  A    between atoms: _455  and  _457
REMARK  181  A    between atoms: _457  and  _458
REMARK  182  A    between atoms: _457  and  _460
REMARK  183  A    between atoms: _460  and  _461
REMARK  184  A    between atoms: _464  and  _466
REMARK  185  A    between atoms: _466  and  _467
REMARK  186  A    between atoms: _466  and  _469
REMARK  187  A    between atoms: _469  and  _470
REMARK  188  A    between atoms: _470  and  _471
REMARK  189  A    between atoms: _471  and  _472
REMARK  190  A    between atoms: _481  and  _483
REMARK  191  A    between atoms: _483  and  _484
REMARK  192  A    between atoms: _486  and  _488
REMARK  193  A    between atoms: _488  and  _489
REMARK  194  A    between atoms: _488  and  _491
REMARK  195  A    between atoms: _491  and  _492
REMARK  196  A    between atoms: _495  and  _497
REMARK  197  A    between atoms: _497  and  _498
REMARK  198  A    between atoms: _500  and  _502
REMARK  199  A    between atoms: _502  and  _503
REMARK  200  A    between atoms: _505  and  _507
REMARK  201  A    between atoms: _507  and  _508
REMARK  202  A    between atoms: _507  and  _510
REMARK  203  A    between atoms: _510  and  _511
REMARK  204  A    between atoms: _516  and  _518
REMARK  205  A    between atoms: _518  and  _519
REMARK  206  A    between atoms: _521  and  _523
REMARK  207  A    between atoms: _523  and  _524
REMARK  208  A    between atoms: _523  and  _526
REMARK  209  A    between atoms: _526  and  _527
REMARK  210  A    between atoms: _529  and  _531
REMARK  211  A    between atoms: _531  and  _532
REMARK  212  A    between atoms: _531  and  _534
REMARK  213  A    between atoms: _534  and  _535
REMARK  214  A    between atoms: _537  and  _539
REMARK  215  A    between atoms: _539  and  _540
REMARK  216  A    between atoms: _542  and  _544
REMARK  217  A    between atoms: _544  and  _545
REMARK  218  A    between atoms: _547  and  _549
REMARK  219  A    between atoms: _549  and  _550
REMARK  220  A    between atoms: _549  and  _552
REMARK  221  A    between atoms: _552  and  _553
REMARK                            x       y       z     vdW  Elec       q    Type
REMARK                         _______ _______ _______ _____ _____    ______ ____
ROOT
ATOM      1  O   HOH     1      21.510  11.134  40.417  0.00  0.00    +0.000 OA
ENDROOT
TORSDOF 0
REMARK  Name = ../refined-set-2016/2py4/2py4_pocket.pdb
REMARK  221 active torsions:
REMARK  status: ('A' for Active; 'I' for Inactive)
REMARK    1  A    between atoms: _1  and  _3
REMARK    2  A    between atoms: _3  and  _4
REMARK    3  A    between atoms: _3  and  _6
REMARK    4  A    between atoms: _6  and  _7
REMARK    5  A    between atoms: _10  and  _12
REMARK    6  A    between atoms: _12  and  _13
REMARK    7  A    between atoms: _12  and  _15
REMARK    8  A    between atoms: _15  and  _16
REMARK    9  A    between atoms: _19  and  _21
REMARK   10  A    between atoms: _21  and  _22
REMARK   11  A    between atoms: _21  and  _24
REMARK   12  A    between atoms: _27  and  _29
REMARK   13  A    between atoms: _29  and  _30
REMARK   14  A    between atoms: _29  and  _32
REMARK   15  A    between atoms: _32  and  _33
REMARK   16  A    between atoms: _36  and  _38
REMARK   17  A    between atoms: _38  and  _39
REMARK   18  A    between atoms: _38  and  _41
REMARK   19  A    between atoms: _44  and  _46
REMARK   20  A    between atoms: _46  and  _47
REMARK   21  A    between atoms: _46  and  _49
REMARK   22  A    between atoms: _52  and  _54
REMARK   23  A    between atoms: _54  and  _55
REMARK   24  A    between atoms: _54  and  _57
REMARK   25  A    between atoms: _60  and  _62
REMARK   26  A    between atoms: _62  and  _63
REMARK   27  A    between atoms: _62  and  _65
REMARK   28  A    between atoms: _68  and  _70
REMARK   29  A    between atoms: _70  and  _71
REMARK   30  A    between atoms: _73  and  _75
REMARK   31  A    between atoms: _75  and  _76
REMARK   32  A    between atoms: _75  and  _78
REMARK   33  A    between atoms: _78  and  _79
REMARK   34  A    between atoms: _82  and  _84
REMARK   35  A    between atoms: _84  and  _85
REMARK   36  A    between atoms: _84  and  _87
REMARK   37  A    between atoms: _90  and  _92
REMARK   38  A    between atoms: _92  and  _93
REMARK   39  A    between atoms: _92  and  _95
REMARK   40  A    between atoms: _95  and  _96
REMARK   41  A    between atoms: _101  and  _103
REMARK   42  A    between atoms: _103  and  _104
REMARK   43  A    between atoms: _103  and  _106
REMARK   44  A    between atoms: _106  and  _107
REMARK   45  A    between atoms: _110  and  _112
REMARK   46  A    between atoms: _112  and  _113
REMARK   47  A    between atoms: _112  and  _115
REMARK   48  A    between atoms: _118  and  _120
REMARK   49  A    between atoms: _120  and  _121
REMARK   50  A    between atoms: _120  and  _123
REMARK   51  A    between atoms: _123  and  _124
REMARK   52  A    between atoms: _129  and  _131
REMARK   53  A    between atoms: _131  and  _132
REMARK   54  A    between atoms: _131  and  _134
REMARK   55  A    between atoms: _134  and  _135
REMARK   56  A    between atoms: _138  and  _139
REMARK   57  A    between atoms: _144  and  _146
REMARK   58  A    between atoms: _146  and  _147
REMARK   59  A    between atoms: _149  and  _151
REMARK   60  A    between atoms: _151  and  _152
REMARK   61  A    between atoms: _151  and  _154
REMARK   62  A    between atoms: _154  and  _155
REMARK   63  A    between atoms: _158  and  _160
REMARK   64  A    between atoms: _160  and  _161
REMARK   65  A    between atoms: _160  and  _163
REMARK   66  A    between atoms: _163  and  _164
REMARK   67  A    between atoms: _167  and  _169
REMARK   68  A    between atoms: _169  and  _170
REMARK   69  A    between atoms: _169  and  _172
REMARK   70  A    between atoms: _172  and  _173
REMARK   71  A    between atoms: _176  and  _178
REMARK   72  A    between atoms: _178  and  _179
REMARK   73  A    between atoms: _182  and  _184
REMARK   74  A    between atoms: _184  and  _185
REMARK   75  A    between atoms: _187  and  _189
REMARK   76  A    between atoms: _189  and  _190
REMARK   77  A    between atoms: _189  and  _192
REMARK   78  A    between atoms: _192  and  _193
REMARK   79  A    between atoms: _198  and  _199
REMARK   80  A    between atoms: _201  and  _203
REMARK   81  A    between atoms: _203  and  _204
REMARK   82  A    between atoms: _203  and  _206
REMARK   83  A    between atoms: _206  and  _207
REMARK   84  A    between atoms: _207  and  _208
REMARK   85  A    between atoms: _208  and  _209
REMARK   86  A    between atoms: _218  and  _220
REMARK   87  A    between atoms: _220  and  _221
REMARK   88  A    between atoms: _223  and  _225
REMARK   89  A    between atoms: _225  and  _226
REMARK   90  A    between atoms: _225  and  _228
REMARK   91  A    between atoms: _228  and  _229
REMARK   92  A    between atoms: _229  and  _230
REMARK   93  A    between atoms: _233  and  _235
REMARK   94  A    between atoms: _235  and  _236
REMARK   95  A    between atoms: _235  and  _238
REMARK   96  A    between atoms: _238  and  _239
REMARK   97  A    between atoms: _242  and  _244
REMARK   98  A    between atoms: _244  and  _245
REMARK   99  A    between atoms: _244  and  _247
REMARK  100  A    between atoms: _247  and  _248
REMARK  101  A    between atoms: _248  and  _249
REMARK  102  A    between atoms: _249  and  _250
REMARK  103  A    between atoms: _250  and  _251
REMARK  104  A    between atoms: _255  and  _257
REMARK  105  A    between atoms: _257  and  _258
REMARK  106  A    between atoms: _257  and  _260
REMARK  107  A    between atoms: _263  and  _265
REMARK  108  A    between atoms: _265  and  _266
REMARK  109  A    between atoms: _269  and  _271
REMARK  110  A    between atoms: _271  and  _272
REMARK  111  A    between atoms: _271  and  _274
REMARK  112  A    between atoms: _274  and  _275
REMARK  113  A    between atoms: _278  and  _280
REMARK  114  A    between atoms: _280  and  _281
REMARK  115  A    between atoms: _280  and  _283
REMARK  116  A    between atoms: _283  and  _284
REMARK  117  A    between atoms: _284  and  _285
REMARK  118  A    between atoms: _285  and  _286
REMARK  119  A    between atoms: _295  and  _297
REMARK  120  A    between atoms: _297  and  _298
REMARK  121  A    between atoms: _301  and  _303
REMARK  122  A    between atoms: _303  and  _304
REMARK  123  A    between atoms: _303  and  _306
REMARK  124  A    between atoms: _306  and  _307
REMARK  125  A    between atoms: _312  and  _314
REMARK  126  A    between atoms: _314  and  _315
REMARK  127  A    between atoms: _314  and  _317
REMARK  128  A    between atoms: _317  and  _318
REMARK  129  A    between atoms: _321  and  _323
REMARK  130  A    between atoms: _323  and  _324
REMARK  131  A    between atoms: _327  and  _329
REMARK  132  A    between atoms: _329  and  _330
REMARK  133  A    between atoms: _332  and  _334
REMARK  134  A    between atoms: _334  and  _335
REMARK  135  A    between atoms: _334  and  _337
REMARK  136  A    between atoms: _337  and  _338
REMARK  137  A    between atoms: _341  and  _343
REMARK  138  A    between atoms: _343  and  _344
REMARK  139  A    between atoms: _343  and  _346
REMARK  140  A    between atoms: _346  and  _347
REMARK  141  A    between atoms: _353  and  _354
REMARK  142  A    between atoms: _359  and  _361
REMARK  143  A    between atoms: _361  and  _362
REMARK  144  A    between atoms: _361  and  _364
REMARK  145  A    between atoms: _364  and  _365
REMARK  146  A    between atoms: _365  and  _366
REMARK  147  A    between atoms: _366  and  _367
REMARK  148  A    between atoms: _376  and  _378
REMARK  149  A    between atoms: _378  and  _379
REMARK  150  A    between atoms: _378  and  _381
REMARK  151  A    between atoms: _381  and  _382
REMARK  152  A    between atoms: _384  and  _386
REMARK  153  A    between atoms: _386  and  _387
REMARK  154  A    between atoms: _389  and  _391
REMARK  155  A    between atoms: _391  and  _392
REMARK  156  A    between atoms: _391  and  _394
REMARK  157  A    between atoms: _394  and  _395
REMARK  158  A    between atoms: _398  and  _400
REMARK  159  A    between atoms: _400  and  _401
REMARK  160  A    between atoms: _404  and  _406
REMARK  161  A    between atoms: _406  and  _407
REMARK  162  A    between atoms: _406  and  _409
REMARK  163  A    between atoms: _409  and  _410
REMARK  164  A    between atoms: _413  and  _415
REMARK  165  A    between atoms: _415  and  _416
REMARK  166  A    between atoms: _415  and  _418
REMARK  167  A    between atoms: _420  and  _422
REMARK  168  A    between atoms: _422  and  _423
REMARK  169  A    between atoms: _422  and  _425
REMARK  170  A    between atoms: _425  and  _426
REMARK  171  A    between atoms: _426  and  _427
REMARK  172  A    between atoms: _427  and  _428
REMARK  173  A    between atoms: _437  and  _439
REMARK  174  A    between atoms: _439  and  _440
REMARK  175  A    between atoms: _443  and  _445
REMARK  176  A    between atoms: _445  and  _446
REMARK  177  A    between atoms: _445  and  _448
REMARK  178  A    between atoms: _448  and  _449
REMARK  179  A    between atoms: _449  and  _450
REMARK  180  A    between atoms: _455  and  _457
REMARK  181  A    between atoms: _457  and  _458
REMARK  182  A    between atoms: _457  and  _460
REMARK  183  A    between atoms: _460  and  _461
REMARK  184  A    between atoms: _464  and  _466
REMARK  185  A    between atoms: _466  and  _467
REMARK  186  A    between atoms: _466  and  _469
REMARK  187  A    between atoms: _469  and  _470
REMARK  188  A    between atoms: _470  and  _471
REMARK  189  A    between atoms: _471  and  _472
REMARK  190  A    between atoms: _481  and  _483
REMARK  191  A    between atoms: _483  and  _484
REMARK  192  A    between atoms: _486  and  _488
REMARK  193  A    between atoms: _488  and  _489
REMARK  194  A    between atoms: _488  and  _491
REMARK  195  A    between atoms: _491  and  _492
REMARK  196  A    between atoms: _495  and  _497
REMARK  197  A    between atoms: _497  and  _498
REMARK  198  A    between atoms: _500  and  _502
REMARK  199  A    between atoms: _502  and  _503
REMARK  200  A    between atoms: _505  and  _507
REMARK  201  A    between atoms: _507  and  _508
REMARK  202  A    between atoms: _507  and  _510
REMARK  203  A    between atoms: _510  and  _511
REMARK  204  A    between atoms: _516  and  _518
REMARK  205  A    between atoms: _518  and  _519
REMARK  206  A    between atoms: _521  and  _523
REMARK  207  A    between atoms: _523  and  _524
REMARK  208  A    between atoms: _523  and  _526
REMARK  209  A    between atoms: _526  and  _527
REMARK  210  A    between atoms: _529  and  _531
REMARK  211  A    between atoms: _531  and  _532
REMARK  212  A    between atoms: _531  and  _534
REMARK  213  A    between atoms: _534  and  _535
REMARK  214  A    between atoms: _537  and  _539
REMARK  215  A    between atoms: _539  and  _540
REMARK  216  A    between atoms: _542  and  _544
REMARK  217  A    between atoms: _544  and  _545
REMARK  218  A    between atoms: _547  and  _549
REMARK  219  A    between atoms: _549  and  _550
REMARK  220  A    between atoms: _549  and  _552
REMARK  221  A    between atoms: _552  and  _553
REMARK                            x       y       z     vdW  Elec       q    Type
REMARK                         _______ _______ _______ _____ _____    ______ ____
ROOT
ATOM      1  O   HOH     1      11.750  13.824  31.479  0.00  0.00    +0.000 OA
ENDROOT
TORSDOF 0
REMARK  Name = ../refined-set-2016/2py4/2py4_pocket.pdb
REMARK  221 active torsions:
REMARK  status: ('A' for Active; 'I' for Inactive)
REMARK    1  A    between atoms: _1  and  _3
REMARK    2  A    between atoms: _3  and  _4
REMARK    3  A    between atoms: _3  and  _6
REMARK    4  A    between atoms: _6  and  _7
REMARK    5  A    between atoms: _10  and  _12
REMARK    6  A    between atoms: _12  and  _13
REMARK    7  A    between atoms: _12  and  _15
REMARK    8  A    between atoms: _15  and  _16
REMARK    9  A    between atoms: _19  and  _21
REMARK   10  A    between atoms: _21  and  _22
REMARK   11  A    between atoms: _21  and  _24
REMARK   12  A    between atoms: _27  and  _29
REMARK   13  A    between atoms: _29  and  _30
REMARK   14  A    between atoms: _29  and  _32
REMARK   15  A    between atoms: _32  and  _33
REMARK   16  A    between atoms: _36  and  _38
REMARK   17  A    between atoms: _38  and  _39
REMARK   18  A    between atoms: _38  and  _41
REMARK   19  A    between atoms: _44  and  _46
REMARK   20  A    between atoms: _46  and  _47
REMARK   21  A    between atoms: _46  and  _49
REMARK   22  A    between atoms: _52  and  _54
REMARK   23  A    between atoms: _54  and  _55
REMARK   24  A    between atoms: _54  and  _57
REMARK   25  A    between atoms: _60  and  _62
REMARK   26  A    between atoms: _62  and  _63
REMARK   27  A    between atoms: _62  and  _65
REMARK   28  A    between atoms: _68  and  _70
REMARK   29  A    between atoms: _70  and  _71
REMARK   30  A    between atoms: _73  and  _75
REMARK   31  A    between atoms: _75  and  _76
REMARK   32  A    between atoms: _75  and  _78
REMARK   33  A    between atoms: _78  and  _79
REMARK   34  A    between atoms: _82  and  _84
REMARK   35  A    between atoms: _84  and  _85
REMARK   36  A    between atoms: _84  and  _87
REMARK   37  A    between atoms: _90  and  _92
REMARK   38  A    between atoms: _92  and  _93
REMARK   39  A    between atoms: _92  and  _95
REMARK   40  A    between atoms: _95  and  _96
REMARK   41  A    between atoms: _101  and  _103
REMARK   42  A    between atoms: _103  and  _104
REMARK   43  A    between atoms: _103  and  _106
REMARK   44  A    between atoms: _106  and  _107
REMARK   45  A    between atoms: _110  and  _112
REMARK   46  A    between atoms: _112  and  _113
REMARK   47  A    between atoms: _112  and  _115
REMARK   48  A    between atoms: _118  and  _120
REMARK   49  A    between atoms: _120  and  _121
REMARK   50  A    between atoms: _120  and  _123
REMARK   51  A    between atoms: _123  and  _124
REMARK   52  A    between atoms: _129  and  _131
REMARK   53  A    between atoms: _131  and  _132
REMARK   54  A    between atoms: _131  and  _134
REMARK   55  A    between atoms: _134  and  _135
REMARK   56  A    between atoms: _138  and  _139
REMARK   57  A    between atoms: _144  and  _146
REMARK   58  A    between atoms: _146  and  _147
REMARK   59  A    between atoms: _149  and  _151
REMARK   60  A    between atoms: _151  and  _152
REMARK   61  A    between atoms: _151  and  _154
REMARK   62  A    between atoms: _154  and  _155
REMARK   63  A    between atoms: _158  and  _160
REMARK   64  A    between atoms: _160  and  _161
REMARK   65  A    between atoms: _160  and  _163
REMARK   66  A    between atoms: _163  and  _164
REMARK   67  A    between atoms: _167  and  _169
REMARK   68  A    between atoms: _169  and  _170
REMARK   69  A    between atoms: _169  and  _172
REMARK   70  A    between atoms: _172  and  _173
REMARK   71  A    between atoms: _176  and  _178
REMARK   72  A    between atoms: _178  and  _179
REMARK   73  A    between atoms: _182  and  _184
REMARK   74  A    between atoms: _184  and  _185
REMARK   75  A    between atoms: _187  and  _189
REMARK   76  A    between atoms: _189  and  _190
REMARK   77  A    between atoms: _189  and  _192
REMARK   78  A    between atoms: _192  and  _193
REMARK   79  A    between atoms: _198  and  _199
REMARK   80  A    between atoms: _201  and  _203
REMARK   81  A    between atoms: _203  and  _204
REMARK   82  A    between atoms: _203  and  _206
REMARK   83  A    between atoms: _206  and  _207
REMARK   84  A    between atoms: _207  and  _208
REMARK   85  A    between atoms: _208  and  _209
REMARK   86  A    between atoms: _218  and  _220
REMARK   87  A    between atoms: _220  and  _221
REMARK   88  A    between atoms: _223  and  _225
REMARK   89  A    between atoms: _225  and  _226
REMARK   90  A    between atoms: _225  and  _228
REMARK   91  A    between atoms: _228  and  _229
REMARK   92  A    between atoms: _229  and  _230
REMARK   93  A    between atoms: _233  and  _235
REMARK   94  A    between atoms: _235  and  _236
REMARK   95  A    between atoms: _235  and  _238
REMARK   96  A    between atoms: _238  and  _239
REMARK   97  A    between atoms: _242  and  _244
REMARK   98  A    between atoms: _244  and  _245
REMARK   99  A    between atoms: _244  and  _247
REMARK  100  A    between atoms: _247  and  _248
REMARK  101  A    between atoms: _248  and  _249
REMARK  102  A    between atoms: _249  and  _250
REMARK  103  A    between atoms: _250  and  _251
REMARK  104  A    between atoms: _255  and  _257
REMARK  105  A    between atoms: _257  and  _258
REMARK  106  A    between atoms: _257  and  _260
REMARK  107  A    between atoms: _263  and  _265
REMARK  108  A    between atoms: _265  and  _266
REMARK  109  A    between atoms: _269  and  _271
REMARK  110  A    between atoms: _271  and  _272
REMARK  111  A    between atoms: _271  and  _274
REMARK  112  A    between atoms: _274  and  _275
REMARK  113  A    between atoms: _278  and  _280
REMARK  114  A    between atoms: _280  and  _281
REMARK  115  A    between atoms: _280  and  _283
REMARK  116  A    between atoms: _283  and  _284
REMARK  117  A    between atoms: _284  and  _285
REMARK  118  A    between atoms: _285  and  _286
REMARK  119  A    between atoms: _295  and  _297
REMARK  120  A    between atoms: _297  and  _298
REMARK  121  A    between atoms: _301  and  _303
REMARK  122  A    between atoms: _303  and  _304
REMARK  123  A    between atoms: _303  and  _306
REMARK  124  A    between atoms: _306  and  _307
REMARK  125  A    between atoms: _312  and  _314
REMARK  126  A    between atoms: _314  and  _315
REMARK  127  A    between atoms: _314  and  _317
REMARK  128  A    between atoms: _317  and  _318
REMARK  129  A    between atoms: _321  and  _323
REMARK  130  A    between atoms: _323  and  _324
REMARK  131  A    between atoms: _327  and  _329
REMARK  132  A    between atoms: _329  and  _330
REMARK  133  A    between atoms: _332  and  _334
REMARK  134  A    between atoms: _334  and  _335
REMARK  135  A    between atoms: _334  and  _337
REMARK  136  A    between atoms: _337  and  _338
REMARK  137  A    between atoms: _341  and  _343
REMARK  138  A    between atoms: _343  and  _344
REMARK  139  A    between atoms: _343  and  _346
REMARK  140  A    between atoms: _346  and  _347
REMARK  141  A    between atoms: _353  and  _354
REMARK  142  A    between atoms: _359  and  _361
REMARK  143  A    between atoms: _361  and  _362
REMARK  144  A    between atoms: _361  and  _364
REMARK  145  A    between atoms: _364  and  _365
REMARK  146  A    between atoms: _365  and  _366
REMARK  147  A    between atoms: _366  and  _367
REMARK  148  A    between atoms: _376  and  _378
REMARK  149  A    between atoms: _378  and  _379
REMARK  150  A    between atoms: _378  and  _381
REMARK  151  A    between atoms: _381  and  _382
REMARK  152  A    between atoms: _384  and  _386
REMARK  153  A    between atoms: _386  and  _387
REMARK  154  A    between atoms: _389  and  _391
REMARK  155  A    between atoms: _391  and  _392
REMARK  156  A    between atoms: _391  and  _394
REMARK  157  A    between atoms: _394  and  _395
REMARK  158  A    between atoms: _398  and  _400
REMARK  159  A    between atoms: _400  and  _401
REMARK  160  A    between atoms: _404  and  _406
REMARK  161  A    between atoms: _406  and  _407
REMARK  162  A    between atoms: _406  and  _409
REMARK  163  A    between atoms: _409  and  _410
REMARK  164  A    between atoms: _413  and  _415
REMARK  165  A    between atoms: _415  and  _416
REMARK  166  A    between atoms: _415  and  _418
REMARK  167  A    between atoms: _420  and  _422
REMARK  168  A    between atoms: _422  and  _423
REMARK  169  A    between atoms: _422  and  _425
REMARK  170  A    between atoms: _425  and  _426
REMARK  171  A    between atoms: _426  and  _427
REMARK  172  A    between atoms: _427  and  _428
REMARK  173  A    between atoms: _437  and  _439
REMARK  174  A    between atoms: _439  and  _440
REMARK  175  A    between atoms: _443  and  _445
REMARK  176  A    between atoms: _445  and  _446
REMARK  177  A    between atoms: _445  and  _448
REMARK  178  A    between atoms: _448  and  _449
REMARK  179  A    between atoms: _449  and  _450
REMARK  180  A    between atoms: _455  and  _457
REMARK  181  A    between atoms: _457  and  _458
REMARK  182  A    between atoms: _457  and  _460
REMARK  183  A    between atoms: _460  and  _461
REMARK  184  A    between atoms: _464  and  _466
REMARK  185  A    between atoms: _466  and  _467
REMARK  186  A    between atoms: _466  and  _469
REMARK  187  A    between atoms: _469  and  _470
REMARK  188  A    between atoms: _470  and  _471
REMARK  189  A    between atoms: _471  and  _472
REMARK  190  A    between atoms: _481  and  _483
REMARK  191  A    between atoms: _483  and  _484
REMARK  192  A    between atoms: _486  and  _488
REMARK  193  A    between atoms: _488  and  _489
REMARK  194  A    between atoms: _488  and  _491
REMARK  195  A    between atoms: _491  and  _492
REMARK  196  A    between atoms: _495  and  _497
REMARK  197  A    between atoms: _497  and  _498
REMARK  198  A    between atoms: _500  and  _502
REMARK  199  A    between atoms: _502  and  _503
REMARK  200  A    between atoms: _505  and  _507
REMARK  201  A    between atoms: _507  and  _508
REMARK  202  A    between atoms: _507  and  _510
REMARK  203  A    between atoms: _510  and  _511
REMARK  204  A    between atoms: _516  and  _518
REMARK  205  A    between atoms: _518  and  _519
REMARK  206  A    between atoms: _521  and  _523
REMARK  207  A    between atoms: _523  and  _524
REMARK  208  A    between atoms: _523  and  _526
REMARK  209  A    between atoms: _526  and  _527
REMARK  210  A    between atoms: _529  and  _531
REMARK  211  A    between atoms: _531  and  _532
REMARK  212  A    between atoms: _531  and  _534
REMARK  213  A    between atoms: _534  and  _535
REMARK  214  A    between atoms: _537  and  _539
REMARK  215  A    between atoms: _539  and  _540
REMARK  216  A    between atoms: _542  and  _544
REMARK  217  A    between atoms: _544  and  _545
REMARK  218  A    between atoms: _547  and  _549
REMARK  219  A    between atoms: _549  and  _550
REMARK  220  A    between atoms: _549  and  _552
REMARK  221  A    between atoms: _552  and  _553
REMARK                            x       y       z     vdW  Elec       q    Type
REMARK                         _______ _______ _______ _____ _____    ______ ____
ROOT
ATOM      1  O   HOH     1      16.921   4.353  45.063  0.00  0.00    +0.000 OA
ENDROOT
TORSDOF 0
REMARK  Name = ../refined-set-2016/2py4/2py4_pocket.pdb
REMARK  221 active torsions:
REMARK  status: ('A' for Active; 'I' for Inactive)
REMARK    1  A    between atoms: _1  and  _3
REMARK    2  A    between atoms: _3  and  _4
REMARK    3  A    between atoms: _3  and  _6
REMARK    4  A    between atoms: _6  and  _7
REMARK    5  A    between atoms: _10  and  _12
REMARK    6  A    between atoms: _12  and  _13
REMARK    7  A    between atoms: _12  and  _15
REMARK    8  A    between atoms: _15  and  _16
REMARK    9  A    between atoms: _19  and  _21
REMARK   10  A    between atoms: _21  and  _22
REMARK   11  A    between atoms: _21  and  _24
REMARK   12  A    between atoms: _27  and  _29
REMARK   13  A    between atoms: _29  and  _30
REMARK   14  A    between atoms: _29  and  _32
REMARK   15  A    between atoms: _32  and  _33
REMARK   16  A    between atoms: _36  and  _38
REMARK   17  A    between atoms: _38  and  _39
REMARK   18  A    between atoms: _38  and  _41
REMARK   19  A    between atoms: _44  and  _46
REMARK   20  A    between atoms: _46  and  _47
REMARK   21  A    between atoms: _46  and  _49
REMARK   22  A    between atoms: _52  and  _54
REMARK   23  A    between atoms: _54  and  _55
REMARK   24  A    between atoms: _54  and  _57
REMARK   25  A    between atoms: _60  and  _62
REMARK   26  A    between atoms: _62  and  _63
REMARK   27  A    between atoms: _62  and  _65
REMARK   28  A    between atoms: _68  and  _70
REMARK   29  A    between atoms: _70  and  _71
REMARK   30  A    between atoms: _73  and  _75
REMARK   31  A    between atoms: _75  and  _76
REMARK   32  A    between atoms: _75  and  _78
REMARK   33  A    between atoms: _78  and  _79
REMARK   34  A    between atoms: _82  and  _84
REMARK   35  A    between atoms: _84  and  _85
REMARK   36  A    between atoms: _84  and  _87
REMARK   37  A    between atoms: _90  and  _92
REMARK   38  A    between atoms: _92  and  _93
REMARK   39  A    between atoms: _92  and  _95
REMARK   40  A    between atoms: _95  and  _96
REMARK   41  A    between atoms: _101  and  _103
REMARK   42  A    between atoms: _103  and  _104
REMARK   43  A    between atoms: _103  and  _106
REMARK   44  A    between atoms: _106  and  _107
REMARK   45  A    between atoms: _110  and  _112
REMARK   46  A    between atoms: _112  and  _113
REMARK   47  A    between atoms: _112  and  _115
REMARK   48  A    between atoms: _118  and  _120
REMARK   49  A    between atoms: _120  and  _121
REMARK   50  A    between atoms: _120  and  _123
REMARK   51  A    between atoms: _123  and  _124
REMARK   52  A    between atoms: _129  and  _131
REMARK   53  A    between atoms: _131  and  _132
REMARK   54  A    between atoms: _131  and  _134
REMARK   55  A    between atoms: _134  and  _135
REMARK   56  A    between atoms: _138  and  _139
REMARK   57  A    between atoms: _144  and  _146
REMARK   58  A    between atoms: _146  and  _147
REMARK   59  A    between atoms: _149  and  _151
REMARK   60  A    between atoms: _151  and  _152
REMARK   61  A    between atoms: _151  and  _154
REMARK   62  A    between atoms: _154  and  _155
REMARK   63  A    between atoms: _158  and  _160
REMARK   64  A    between atoms: _160  and  _161
REMARK   65  A    between atoms: _160  and  _163
REMARK   66  A    between atoms: _163  and  _164
REMARK   67  A    between atoms: _167  and  _169
REMARK   68  A    between atoms: _169  and  _170
REMARK   69  A    between atoms: _169  and  _172
REMARK   70  A    between atoms: _172  and  _173
REMARK   71  A    between atoms: _176  and  _178
REMARK   72  A    between atoms: _178  and  _179
REMARK   73  A    between atoms: _182  and  _184
REMARK   74  A    between atoms: _184  and  _185
REMARK   75  A    between atoms: _187  and  _189
REMARK   76  A    between atoms: _189  and  _190
REMARK   77  A    between atoms: _189  and  _192
REMARK   78  A    between atoms: _192  and  _193
REMARK   79  A    between atoms: _198  and  _199
REMARK   80  A    between atoms: _201  and  _203
REMARK   81  A    between atoms: _203  and  _204
REMARK   82  A    between atoms: _203  and  _206
REMARK   83  A    between atoms: _206  and  _207
REMARK   84  A    between atoms: _207  and  _208
REMARK   85  A    between atoms: _208  and  _209
REMARK   86  A    between atoms: _218  and  _220
REMARK   87  A    between atoms: _220  and  _221
REMARK   88  A    between atoms: _223  and  _225
REMARK   89  A    between atoms: _225  and  _226
REMARK   90  A    between atoms: _225  and  _228
REMARK   91  A    between atoms: _228  and  _229
REMARK   92  A    between atoms: _229  and  _230
REMARK   93  A    between atoms: _233  and  _235
REMARK   94  A    between atoms: _235  and  _236
REMARK   95  A    between atoms: _235  and  _238
REMARK   96  A    between atoms: _238  and  _239
REMARK   97  A    between atoms: _242  and  _244
REMARK   98  A    between atoms: _244  and  _245
REMARK   99  A    between atoms: _244  and  _247
REMARK  100  A    between atoms: _247  and  _248
REMARK  101  A    between atoms: _248  and  _249
REMARK  102  A    between atoms: _249  and  _250
REMARK  103  A    between atoms: _250  and  _251
REMARK  104  A    between atoms: _255  and  _257
REMARK  105  A    between atoms: _257  and  _258
REMARK  106  A    between atoms: _257  and  _260
REMARK  107  A    between atoms: _263  and  _265
REMARK  108  A    between atoms: _265  and  _266
REMARK  109  A    between atoms: _269  and  _271
REMARK  110  A    between atoms: _271  and  _272
REMARK  111  A    between atoms: _271  and  _274
REMARK  112  A    between atoms: _274  and  _275
REMARK  113  A    between atoms: _278  and  _280
REMARK  114  A    between atoms: _280  and  _281
REMARK  115  A    between atoms: _280  and  _283
REMARK  116  A    between atoms: _283  and  _284
REMARK  117  A    between atoms: _284  and  _285
REMARK  118  A    between atoms: _285  and  _286
REMARK  119  A    between atoms: _295  and  _297
REMARK  120  A    between atoms: _297  and  _298
REMARK  121  A    between atoms: _301  and  _303
REMARK  122  A    between atoms: _303  and  _304
REMARK  123  A    between atoms: _303  and  _306
REMARK  124  A    between atoms: _306  and  _307
REMARK  125  A    between atoms: _312  and  _314
REMARK  126  A    between atoms: _314  and  _315
REMARK  127  A    between atoms: _314  and  _317
REMARK  128  A    between atoms: _317  and  _318
REMARK  129  A    between atoms: _321  and  _323
REMARK  130  A    between atoms: _323  and  _324
REMARK  131  A    between atoms: _327  and  _329
REMARK  132  A    between atoms: _329  and  _330
REMARK  133  A    between atoms: _332  and  _334
REMARK  134  A    between atoms: _334  and  _335
REMARK  135  A    between atoms: _334  and  _337
REMARK  136  A    between atoms: _337  and  _338
REMARK  137  A    between atoms: _341  and  _343
REMARK  138  A    between atoms: _343  and  _344
REMARK  139  A    between atoms: _343  and  _346
REMARK  140  A    between atoms: _346  and  _347
REMARK  141  A    between atoms: _353  and  _354
REMARK  142  A    between atoms: _359  and  _361
REMARK  143  A    between atoms: _361  and  _362
REMARK  144  A    between atoms: _361  and  _364
REMARK  145  A    between atoms: _364  and  _365
REMARK  146  A    between atoms: _365  and  _366
REMARK  147  A    between atoms: _366  and  _367
REMARK  148  A    between atoms: _376  and  _378
REMARK  149  A    between atoms: _378  and  _379
REMARK  150  A    between atoms: _378  and  _381
REMARK  151  A    between atoms: _381  and  _382
REMARK  152  A    between atoms: _384  and  _386
REMARK  153  A    between atoms: _386  and  _387
REMARK  154  A    between atoms: _389  and  _391
REMARK  155  A    between atoms: _391  and  _392
REMARK  156  A    between atoms: _391  and  _394
REMARK  157  A    between atoms: _394  and  _395
REMARK  158  A    between atoms: _398  and  _400
REMARK  159  A    between atoms: _400  and  _401
REMARK  160  A    between atoms: _404  and  _406
REMARK  161  A    between atoms: _406  and  _407
REMARK  162  A    between atoms: _406  and  _409
REMARK  163  A    between atoms: _409  and  _410
REMARK  164  A    between atoms: _413  and  _415
REMARK  165  A    between atoms: _415  and  _416
REMARK  166  A    between atoms: _415  and  _418
REMARK  167  A    between atoms: _420  and  _422
REMARK  168  A    between atoms: _422  and  _423
REMARK  169  A    between atoms: _422  and  _425
REMARK  170  A    between atoms: _425  and  _426
REMARK  171  A    between atoms: _426  and  _427
REMARK  172  A    between atoms: _427  and  _428
REMARK  173  A    between atoms: _437  and  _439
REMARK  174  A    between atoms: _439  and  _440
REMARK  175  A    between atoms: _443  and  _445
REMARK  176  A    between atoms: _445  and  _446
REMARK  177  A    between atoms: _445  and  _448
REMARK  178  A    between atoms: _448  and  _449
REMARK  179  A    between atoms: _449  and  _450
REMARK  180  A    between atoms: _455  and  _457
REMARK  181  A    between atoms: _457  and  _458
REMARK  182  A    between atoms: _457  and  _460
REMARK  183  A    between atoms: _460  and  _461
REMARK  184  A    between atoms: _464  and  _466
REMARK  185  A    between atoms: _466  and  _467
REMARK  186  A    between atoms: _466  and  _469
REMARK  187  A    between atoms: _469  and  _470
REMARK  188  A    between atoms: _470  and  _471
REMARK  189  A    between atoms: _471  and  _472
REMARK  190  A    between atoms: _481  and  _483
REMARK  191  A    between atoms: _483  and  _484
REMARK  192  A    between atoms: _486  and  _488
REMARK  193  A    between atoms: _488  and  _489
REMARK  194  A    between atoms: _488  and  _491
REMARK  195  A    between atoms: _491  and  _492
REMARK  196  A    between atoms: _495  and  _497
REMARK  197  A    between atoms: _497  and  _498
REMARK  198  A    between atoms: _500  and  _502
REMARK  199  A    between atoms: _502  and  _503
REMARK  200  A    between atoms: _505  and  _507
REMARK  201  A    between atoms: _507  and  _508
REMARK  202  A    between atoms: _507  and  _510
REMARK  203  A    between atoms: _510  and  _511
REMARK  204  A    between atoms: _516  and  _518
REMARK  205  A    between atoms: _518  and  _519
REMARK  206  A    between atoms: _521  and  _523
REMARK  207  A    between atoms: _523  and  _524
REMARK  208  A    between atoms: _523  and  _526
REMARK  209  A    between atoms: _526  and  _527
REMARK  210  A    between atoms: _529  and  _531
REMARK  211  A    between atoms: _531  and  _532
REMARK  212  A    between atoms: _531  and  _534
REMARK  213  A    between atoms: _534  and  _535
REMARK  214  A    between atoms: _537  and  _539
REMARK  215  A    between atoms: _539  and  _540
REMARK  216  A    between atoms: _542  and  _544
REMARK  217  A    between atoms: _544  and  _545
REMARK  218  A    between atoms: _547  and  _549
REMARK  219  A    between atoms: _549  and  _550
REMARK  220  A    between atoms: _549  and  _552
REMARK  221  A    between atoms: _552  and  _553
REMARK                            x       y       z     vdW  Elec       q    Type
REMARK                         _______ _______ _______ _____ _____    ______ ____
ROOT
ATOM      1  O   HOH     1      17.788   8.369  36.712  0.00  0.00    +0.000 OA
ENDROOT
TORSDOF 0
REMARK  Name = ../refined-set-2016/2py4/2py4_pocket.pdb
REMARK  221 active torsions:
REMARK  status: ('A' for Active; 'I' for Inactive)
REMARK    1  A    between atoms: _1  and  _3
REMARK    2  A    between atoms: _3  and  _4
REMARK    3  A    between atoms: _3  and  _6
REMARK    4  A    between atoms: _6  and  _7
REMARK    5  A    between atoms: _10  and  _12
REMARK    6  A    between atoms: _12  and  _13
REMARK    7  A    between atoms: _12  and  _15
REMARK    8  A    between atoms: _15  and  _16
REMARK    9  A    between atoms: _19  and  _21
REMARK   10  A    between atoms: _21  and  _22
REMARK   11  A    between atoms: _21  and  _24
REMARK   12  A    between atoms: _27  and  _29
REMARK   13  A    between atoms: _29  and  _30
REMARK   14  A    between atoms: _29  and  _32
REMARK   15  A    between atoms: _32  and  _33
REMARK   16  A    between atoms: _36  and  _38
REMARK   17  A    between atoms: _38  and  _39
REMARK   18  A    between atoms: _38  and  _41
REMARK   19  A    between atoms: _44  and  _46
REMARK   20  A    between atoms: _46  and  _47
REMARK   21  A    between atoms: _46  and  _49
REMARK   22  A    between atoms: _52  and  _54
REMARK   23  A    between atoms: _54  and  _55
REMARK   24  A    between atoms: _54  and  _57
REMARK   25  A    between atoms: _60  and  _62
REMARK   26  A    between atoms: _62  and  _63
REMARK   27  A    between atoms: _62  and  _65
REMARK   28  A    between atoms: _68  and  _70
REMARK   29  A    between atoms: _70  and  _71
REMARK   30  A    between atoms: _73  and  _75
REMARK   31  A    between atoms: _75  and  _76
REMARK   32  A    between atoms: _75  and  _78
REMARK   33  A    between atoms: _78  and  _79
REMARK   34  A    between atoms: _82  and  _84
REMARK   35  A    between atoms: _84  and  _85
REMARK   36  A    between atoms: _84  and  _87
REMARK   37  A    between atoms: _90  and  _92
REMARK   38  A    between atoms: _92  and  _93
REMARK   39  A    between atoms: _92  and  _95
REMARK   40  A    between atoms: _95  and  _96
REMARK   41  A    between atoms: _101  and  _103
REMARK   42  A    between atoms: _103  and  _104
REMARK   43  A    between atoms: _103  and  _106
REMARK   44  A    between atoms: _106  and  _107
REMARK   45  A    between atoms: _110  and  _112
REMARK   46  A    between atoms: _112  and  _113
REMARK   47  A    between atoms: _112  and  _115
REMARK   48  A    between atoms: _118  and  _120
REMARK   49  A    between atoms: _120  and  _121
REMARK   50  A    between atoms: _120  and  _123
REMARK   51  A    between atoms: _123  and  _124
REMARK   52  A    between atoms: _129  and  _131
REMARK   53  A    between atoms: _131  and  _132
REMARK   54  A    between atoms: _131  and  _134
REMARK   55  A    between atoms: _134  and  _135
REMARK   56  A    between atoms: _138  and  _139
REMARK   57  A    between atoms: _144  and  _146
REMARK   58  A    between atoms: _146  and  _147
REMARK   59  A    between atoms: _149  and  _151
REMARK   60  A    between atoms: _151  and  _152
REMARK   61  A    between atoms: _151  and  _154
REMARK   62  A    between atoms: _154  and  _155
REMARK   63  A    between atoms: _158  and  _160
REMARK   64  A    between atoms: _160  and  _161
REMARK   65  A    between atoms: _160  and  _163
REMARK   66  A    between atoms: _163  and  _164
REMARK   67  A    between atoms: _167  and  _169
REMARK   68  A    between atoms: _169  and  _170
REMARK   69  A    between atoms: _169  and  _172
REMARK   70  A    between atoms: _172  and  _173
REMARK   71  A    between atoms: _176  and  _178
REMARK   72  A    between atoms: _178  and  _179
REMARK   73  A    between atoms: _182  and  _184
REMARK   74  A    between atoms: _184  and  _185
REMARK   75  A    between atoms: _187  and  _189
REMARK   76  A    between atoms: _189  and  _190
REMARK   77  A    between atoms: _189  and  _192
REMARK   78  A    between atoms: _192  and  _193
REMARK   79  A    between atoms: _198  and  _199
REMARK   80  A    between atoms: _201  and  _203
REMARK   81  A    between atoms: _203  and  _204
REMARK   82  A    between atoms: _203  and  _206
REMARK   83  A    between atoms: _206  and  _207
REMARK   84  A    between atoms: _207  and  _208
REMARK   85  A    between atoms: _208  and  _209
REMARK   86  A    between atoms: _218  and  _220
REMARK   87  A    between atoms: _220  and  _221
REMARK   88  A    between atoms: _223  and  _225
REMARK   89  A    between atoms: _225  and  _226
REMARK   90  A    between atoms: _225  and  _228
REMARK   91  A    between atoms: _228  and  _229
REMARK   92  A    between atoms: _229  and  _230
REMARK   93  A    between atoms: _233  and  _235
REMARK   94  A    between atoms: _235  and  _236
REMARK   95  A    between atoms: _235  and  _238
REMARK   96  A    between atoms: _238  and  _239
REMARK   97  A    between atoms: _242  and  _244
REMARK   98  A    between atoms: _244  and  _245
REMARK   99  A    between atoms: _244  and  _247
REMARK  100  A    between atoms: _247  and  _248
REMARK  101  A    between atoms: _248  and  _249
REMARK  102  A    between atoms: _249  and  _250
REMARK  103  A    between atoms: _250  and  _251
REMARK  104  A    between atoms: _255  and  _257
REMARK  105  A    between atoms: _257  and  _258
REMARK  106  A    between atoms: _257  and  _260
REMARK  107  A    between atoms: _263  and  _265
REMARK  108  A    between atoms: _265  and  _266
REMARK  109  A    between atoms: _269  and  _271
REMARK  110  A    between atoms: _271  and  _272
REMARK  111  A    between atoms: _271  and  _274
REMARK  112  A    between atoms: _274  and  _275
REMARK  113  A    between atoms: _278  and  _280
REMARK  114  A    between atoms: _280  and  _281
REMARK  115  A    between atoms: _280  and  _283
REMARK  116  A    between atoms: _283  and  _284
REMARK  117  A    between atoms: _284  and  _285
REMARK  118  A    between atoms: _285  and  _286
REMARK  119  A    between atoms: _295  and  _297
REMARK  120  A    between atoms: _297  and  _298
REMARK  121  A    between atoms: _301  and  _303
REMARK  122  A    between atoms: _303  and  _304
REMARK  123  A    between atoms: _303  and  _306
REMARK  124  A    between atoms: _306  and  _307
REMARK  125  A    between atoms: _312  and  _314
REMARK  126  A    between atoms: _314  and  _315
REMARK  127  A    between atoms: _314  and  _317
REMARK  128  A    between atoms: _317  and  _318
REMARK  129  A    between atoms: _321  and  _323
REMARK  130  A    between atoms: _323  and  _324
REMARK  131  A    between atoms: _327  and  _329
REMARK  132  A    between atoms: _329  and  _330
REMARK  133  A    between atoms: _332  and  _334
REMARK  134  A    between atoms: _334  and  _335
REMARK  135  A    between atoms: _334  and  _337
REMARK  136  A    between atoms: _337  and  _338
REMARK  137  A    between atoms: _341  and  _343
REMARK  138  A    between atoms: _343  and  _344
REMARK  139  A    between atoms: _343  and  _346
REMARK  140  A    between atoms: _346  and  _347
REMARK  141  A    between atoms: _353  and  _354
REMARK  142  A    between atoms: _359  and  _361
REMARK  143  A    between atoms: _361  and  _362
REMARK  144  A    between atoms: _361  and  _364
REMARK  145  A    between atoms: _364  and  _365
REMARK  146  A    between atoms: _365  and  _366
REMARK  147  A    between atoms: _366  and  _367
REMARK  148  A    between atoms: _376  and  _378
REMARK  149  A    between atoms: _378  and  _379
REMARK  150  A    between atoms: _378  and  _381
REMARK  151  A    between atoms: _381  and  _382
REMARK  152  A    between atoms: _384  and  _386
REMARK  153  A    between atoms: _386  and  _387
REMARK  154  A    between atoms: _389  and  _391
REMARK  155  A    between atoms: _391  and  _392
REMARK  156  A    between atoms: _391  and  _394
REMARK  157  A    between atoms: _394  and  _395
REMARK  158  A    between atoms: _398  and  _400
REMARK  159  A    between atoms: _400  and  _401
REMARK  160  A    between atoms: _404  and  _406
REMARK  161  A    between atoms: _406  and  _407
REMARK  162  A    between atoms: _406  and  _409
REMARK  163  A    between atoms: _409  and  _410
REMARK  164  A    between atoms: _413  and  _415
REMARK  165  A    between atoms: _415  and  _416
REMARK  166  A    between atoms: _415  and  _418
REMARK  167  A    between atoms: _420  and  _422
REMARK  168  A    between atoms: _422  and  _423
REMARK  169  A    between atoms: _422  and  _425
REMARK  170  A    between atoms: _425  and  _426
REMARK  171  A    between atoms: _426  and  _427
REMARK  172  A    between atoms: _427  and  _428
REMARK  173  A    between atoms: _437  and  _439
REMARK  174  A    between atoms: _439  and  _440
REMARK  175  A    between atoms: _443  and  _445
REMARK  176  A    between atoms: _445  and  _446
REMARK  177  A    between atoms: _445  and  _448
REMARK  178  A    between atoms: _448  and  _449
REMARK  179  A    between atoms: _449  and  _450
REMARK  180  A    between atoms: _455  and  _457
REMARK  181  A    between atoms: _457  and  _458
REMARK  182  A    between atoms: _457  and  _460
REMARK  183  A    between atoms: _460  and  _461
REMARK  184  A    between atoms: _464  and  _466
REMARK  185  A    between atoms: _466  and  _467
REMARK  186  A    between atoms: _466  and  _469
REMARK  187  A    between atoms: _469  and  _470
REMARK  188  A    between atoms: _470  and  _471
REMARK  189  A    between atoms: _471  and  _472
REMARK  190  A    between atoms: _481  and  _483
REMARK  191  A    between atoms: _483  and  _484
REMARK  192  A    between atoms: _486  and  _488
REMARK  193  A    between atoms: _488  and  _489
REMARK  194  A    between atoms: _488  and  _491
REMARK  195  A    between atoms: _491  and  _492
REMARK  196  A    between atoms: _495  and  _497
REMARK  197  A    between atoms: _497  and  _498
REMARK  198  A    between atoms: _500  and  _502
REMARK  199  A    between atoms: _502  and  _503
REMARK  200  A    between atoms: _505  and  _507
REMARK  201  A    between atoms: _507  and  _508
REMARK  202  A    between atoms: _507  and  _510
REMARK  203  A    between atoms: _510  and  _511
REMARK  204  A    between atoms: _516  and  _518
REMARK  205  A    between atoms: _518  and  _519
REMARK  206  A    between atoms: _521  and  _523
REMARK  207  A    between atoms: _523  and  _524
REMARK  208  A    between atoms: _523  and  _526
REMARK  209  A    between atoms: _526  and  _527
REMARK  210  A    between atoms: _529  and  _531
REMARK  211  A    between atoms: _531  and  _532
REMARK  212  A    between atoms: _531  and  _534
REMARK  213  A    between atoms: _534  and  _535
REMARK  214  A    between atoms: _537  and  _539
REMARK  215  A    between atoms: _539  and  _540
REMARK  216  A    between atoms: _542  and  _544
REMARK  217  A    between atoms: _544  and  _545
REMARK  218  A    between atoms: _547  and  _549
REMARK  219  A    between atoms: _549  and  _550
REMARK  220  A    between atoms: _549  and  _552
REMARK  221  A    between atoms: _552  and  _553
REMARK                            x       y       z     vdW  Elec       q    Type
REMARK                         _______ _______ _______ _____ _____    ______ ____
ROOT
ATOM      1  O   HOH     1       4.933  13.616  40.394  0.00  0.00    +0.000 OA
ENDROOT
TORSDOF 0
REMARK  Name = ../refined-set-2016/2py4/2py4_pocket.pdb
REMARK  221 active torsions:
REMARK  status: ('A' for Active; 'I' for Inactive)
REMARK    1  A    between atoms: _1  and  _3
REMARK    2  A    between atoms: _3  and  _4
REMARK    3  A    between atoms: _3  and  _6
REMARK    4  A    between atoms: _6  and  _7
REMARK    5  A    between atoms: _10  and  _12
REMARK    6  A    between atoms: _12  and  _13
REMARK    7  A    between atoms: _12  and  _15
REMARK    8  A    between atoms: _15  and  _16
REMARK    9  A    between atoms: _19  and  _21
REMARK   10  A    between atoms: _21  and  _22
REMARK   11  A    between atoms: _21  and  _24
REMARK   12  A    between atoms: _27  and  _29
REMARK   13  A    between atoms: _29  and  _30
REMARK   14  A    between atoms: _29  and  _32
REMARK   15  A    between atoms: _32  and  _33
REMARK   16  A    between atoms: _36  and  _38
REMARK   17  A    between atoms: _38  and  _39
REMARK   18  A    between atoms: _38  and  _41
REMARK   19  A    between atoms: _44  and  _46
REMARK   20  A    between atoms: _46  and  _47
REMARK   21  A    between atoms: _46  and  _49
REMARK   22  A    between atoms: _52  and  _54
REMARK   23  A    between atoms: _54  and  _55
REMARK   24  A    between atoms: _54  and  _57
REMARK   25  A    between atoms: _60  and  _62
REMARK   26  A    between atoms: _62  and  _63
REMARK   27  A    between atoms: _62  and  _65
REMARK   28  A    between atoms: _68  and  _70
REMARK   29  A    between atoms: _70  and  _71
REMARK   30  A    between atoms: _73  and  _75
REMARK   31  A    between atoms: _75  and  _76
REMARK   32  A    between atoms: _75  and  _78
REMARK   33  A    between atoms: _78  and  _79
REMARK   34  A    between atoms: _82  and  _84
REMARK   35  A    between atoms: _84  and  _85
REMARK   36  A    between atoms: _84  and  _87
REMARK   37  A    between atoms: _90  and  _92
REMARK   38  A    between atoms: _92  and  _93
REMARK   39  A    between atoms: _92  and  _95
REMARK   40  A    between atoms: _95  and  _96
REMARK   41  A    between atoms: _101  and  _103
REMARK   42  A    between atoms: _103  and  _104
REMARK   43  A    between atoms: _103  and  _106
REMARK   44  A    between atoms: _106  and  _107
REMARK   45  A    between atoms: _110  and  _112
REMARK   46  A    between atoms: _112  and  _113
REMARK   47  A    between atoms: _112  and  _115
REMARK   48  A    between atoms: _118  and  _120
REMARK   49  A    between atoms: _120  and  _121
REMARK   50  A    between atoms: _120  and  _123
REMARK   51  A    between atoms: _123  and  _124
REMARK   52  A    between atoms: _129  and  _131
REMARK   53  A    between atoms: _131  and  _132
REMARK   54  A    between atoms: _131  and  _134
REMARK   55  A    between atoms: _134  and  _135
REMARK   56  A    between atoms: _138  and  _139
REMARK   57  A    between atoms: _144  and  _146
REMARK   58  A    between atoms: _146  and  _147
REMARK   59  A    between atoms: _149  and  _151
REMARK   60  A    between atoms: _151  and  _152
REMARK   61  A    between atoms: _151  and  _154
REMARK   62  A    between atoms: _154  and  _155
REMARK   63  A    between atoms: _158  and  _160
REMARK   64  A    between atoms: _160  and  _161
REMARK   65  A    between atoms: _160  and  _163
REMARK   66  A    between atoms: _163  and  _164
REMARK   67  A    between atoms: _167  and  _169
REMARK   68  A    between atoms: _169  and  _170
REMARK   69  A    between atoms: _169  and  _172
REMARK   70  A    between atoms: _172  and  _173
REMARK   71  A    between atoms: _176  and  _178
REMARK   72  A    between atoms: _178  and  _179
REMARK   73  A    between atoms: _182  and  _184
REMARK   74  A    between atoms: _184  and  _185
REMARK   75  A    between atoms: _187  and  _189
REMARK   76  A    between atoms: _189  and  _190
REMARK   77  A    between atoms: _189  and  _192
REMARK   78  A    between atoms: _192  and  _193
REMARK   79  A    between atoms: _198  and  _199
REMARK   80  A    between atoms: _201  and  _203
REMARK   81  A    between atoms: _203  and  _204
REMARK   82  A    between atoms: _203  and  _206
REMARK   83  A    between atoms: _206  and  _207
REMARK   84  A    between atoms: _207  and  _208
REMARK   85  A    between atoms: _208  and  _209
REMARK   86  A    between atoms: _218  and  _220
REMARK   87  A    between atoms: _220  and  _221
REMARK   88  A    between atoms: _223  and  _225
REMARK   89  A    between atoms: _225  and  _226
REMARK   90  A    between atoms: _225  and  _228
REMARK   91  A    between atoms: _228  and  _229
REMARK   92  A    between atoms: _229  and  _230
REMARK   93  A    between atoms: _233  and  _235
REMARK   94  A    between atoms: _235  and  _236
REMARK   95  A    between atoms: _235  and  _238
REMARK   96  A    between atoms: _238  and  _239
REMARK   97  A    between atoms: _242  and  _244
REMARK   98  A    between atoms: _244  and  _245
REMARK   99  A    between atoms: _244  and  _247
REMARK  100  A    between atoms: _247  and  _248
REMARK  101  A    between atoms: _248  and  _249
REMARK  102  A    between atoms: _249  and  _250
REMARK  103  A    between atoms: _250  and  _251
REMARK  104  A    between atoms: _255  and  _257
REMARK  105  A    between atoms: _257  and  _258
REMARK  106  A    between atoms: _257  and  _260
REMARK  107  A    between atoms: _263  and  _265
REMARK  108  A    between atoms: _265  and  _266
REMARK  109  A    between atoms: _269  and  _271
REMARK  110  A    between atoms: _271  and  _272
REMARK  111  A    between atoms: _271  and  _274
REMARK  112  A    between atoms: _274  and  _275
REMARK  113  A    between atoms: _278  and  _280
REMARK  114  A    between atoms: _280  and  _281
REMARK  115  A    between atoms: _280  and  _283
REMARK  116  A    between atoms: _283  and  _284
REMARK  117  A    between atoms: _284  and  _285
REMARK  118  A    between atoms: _285  and  _286
REMARK  119  A    between atoms: _295  and  _297
REMARK  120  A    between atoms: _297  and  _298
REMARK  121  A    between atoms: _301  and  _303
REMARK  122  A    between atoms: _303  and  _304
REMARK  123  A    between atoms: _303  and  _306
REMARK  124  A    between atoms: _306  and  _307
REMARK  125  A    between atoms: _312  and  _314
REMARK  126  A    between atoms: _314  and  _315
REMARK  127  A    between atoms: _314  and  _317
REMARK  128  A    between atoms: _317  and  _318
REMARK  129  A    between atoms: _321  and  _323
REMARK  130  A    between atoms: _323  and  _324
REMARK  131  A    between atoms: _327  and  _329
REMARK  132  A    between atoms: _329  and  _330
REMARK  133  A    between atoms: _332  and  _334
REMARK  134  A    between atoms: _334  and  _335
REMARK  135  A    between atoms: _334  and  _337
REMARK  136  A    between atoms: _337  and  _338
REMARK  137  A    between atoms: _341  and  _343
REMARK  138  A    between atoms: _343  and  _344
REMARK  139  A    between atoms: _343  and  _346
REMARK  140  A    between atoms: _346  and  _347
REMARK  141  A    between atoms: _353  and  _354
REMARK  142  A    between atoms: _359  and  _361
REMARK  143  A    between atoms: _361  and  _362
REMARK  144  A    between atoms: _361  and  _364
REMARK  145  A    between atoms: _364  and  _365
REMARK  146  A    between atoms: _365  and  _366
REMARK  147  A    between atoms: _366  and  _367
REMARK  148  A    between atoms: _376  and  _378
REMARK  149  A    between atoms: _378  and  _379
REMARK  150  A    between atoms: _378  and  _381
REMARK  151  A    between atoms: _381  and  _382
REMARK  152  A    between atoms: _384  and  _386
REMARK  153  A    between atoms: _386  and  _387
REMARK  154  A    between atoms: _389  and  _391
REMARK  155  A    between atoms: _391  and  _392
REMARK  156  A    between atoms: _391  and  _394
REMARK  157  A    between atoms: _394  and  _395
REMARK  158  A    between atoms: _398  and  _400
REMARK  159  A    between atoms: _400  and  _401
REMARK  160  A    between atoms: _404  and  _406
REMARK  161  A    between atoms: _406  and  _407
REMARK  162  A    between atoms: _406  and  _409
REMARK  163  A    between atoms: _409  and  _410
REMARK  164  A    between atoms: _413  and  _415
REMARK  165  A    between atoms: _415  and  _416
REMARK  166  A    between atoms: _415  and  _418
REMARK  167  A    between atoms: _420  and  _422
REMARK  168  A    between atoms: _422  and  _423
REMARK  169  A    between atoms: _422  and  _425
REMARK  170  A    between atoms: _425  and  _426
REMARK  171  A    between atoms: _426  and  _427
REMARK  172  A    between atoms: _427  and  _428
REMARK  173  A    between atoms: _437  and  _439
REMARK  174  A    between atoms: _439  and  _440
REMARK  175  A    between atoms: _443  and  _445
REMARK  176  A    between atoms: _445  and  _446
REMARK  177  A    between atoms: _445  and  _448
REMARK  178  A    between atoms: _448  and  _449
REMARK  179  A    between atoms: _449  and  _450
REMARK  180  A    between atoms: _455  and  _457
REMARK  181  A    between atoms: _457  and  _458
REMARK  182  A    between atoms: _457  and  _460
REMARK  183  A    between atoms: _460  and  _461
REMARK  184  A    between atoms: _464  and  _466
REMARK  185  A    between atoms: _466  and  _467
REMARK  186  A    between atoms: _466  and  _469
REMARK  187  A    between atoms: _469  and  _470
REMARK  188  A    between atoms: _470  and  _471
REMARK  189  A    between atoms: _471  and  _472
REMARK  190  A    between atoms: _481  and  _483
REMARK  191  A    between atoms: _483  and  _484
REMARK  192  A    between atoms: _486  and  _488
REMARK  193  A    between atoms: _488  and  _489
REMARK  194  A    between atoms: _488  and  _491
REMARK  195  A    between atoms: _491  and  _492
REMARK  196  A    between atoms: _495  and  _497
REMARK  197  A    between atoms: _497  and  _498
REMARK  198  A    between atoms: _500  and  _502
REMARK  199  A    between atoms: _502  and  _503
REMARK  200  A    between atoms: _505  and  _507
REMARK  201  A    between atoms: _507  and  _508
REMARK  202  A    between atoms: _507  and  _510
REMARK  203  A    between atoms: _510  and  _511
REMARK  204  A    between atoms: _516  and  _518
REMARK  205  A    between atoms: _518  and  _519
REMARK  206  A    between atoms: _521  and  _523
REMARK  207  A    between atoms: _523  and  _524
REMARK  208  A    between atoms: _523  and  _526
REMARK  209  A    between atoms: _526  and  _527
REMARK  210  A    between atoms: _529  and  _531
REMARK  211  A    between atoms: _531  and  _532
REMARK  212  A    between atoms: _531  and  _534
REMARK  213  A    between atoms: _534  and  _535
REMARK  214  A    between atoms: _537  and  _539
REMARK  215  A    between atoms: _539  and  _540
REMARK  216  A    between atoms: _542  and  _544
REMARK  217  A    between atoms: _544  and  _545
REMARK  218  A    between atoms: _547  and  _549
REMARK  219  A    between atoms: _549  and  _550
REMARK  220  A    between atoms: _549  and  _552
REMARK  221  A    between atoms: _552  and  _553
REMARK                            x       y       z     vdW  Elec       q    Type
REMARK                         _______ _______ _______ _____ _____    ______ ____
ROOT
ATOM      1  O   HOH     1      16.769   4.920  36.607  0.00  0.00    +0.000 OA
ENDROOT
TORSDOF 0
REMARK  Name = ../refined-set-2016/2py4/2py4_pocket.pdb
REMARK  221 active torsions:
REMARK  status: ('A' for Active; 'I' for Inactive)
REMARK    1  A    between atoms: _1  and  _3
REMARK    2  A    between atoms: _3  and  _4
REMARK    3  A    between atoms: _3  and  _6
REMARK    4  A    between atoms: _6  and  _7
REMARK    5  A    between atoms: _10  and  _12
REMARK    6  A    between atoms: _12  and  _13
REMARK    7  A    between atoms: _12  and  _15
REMARK    8  A    between atoms: _15  and  _16
REMARK    9  A    between atoms: _19  and  _21
REMARK   10  A    between atoms: _21  and  _22
REMARK   11  A    between atoms: _21  and  _24
REMARK   12  A    between atoms: _27  and  _29
REMARK   13  A    between atoms: _29  and  _30
REMARK   14  A    between atoms: _29  and  _32
REMARK   15  A    between atoms: _32  and  _33
REMARK   16  A    between atoms: _36  and  _38
REMARK   17  A    between atoms: _38  and  _39
REMARK   18  A    between atoms: _38  and  _41
REMARK   19  A    between atoms: _44  and  _46
REMARK   20  A    between atoms: _46  and  _47
REMARK   21  A    between atoms: _46  and  _49
REMARK   22  A    between atoms: _52  and  _54
REMARK   23  A    between atoms: _54  and  _55
REMARK   24  A    between atoms: _54  and  _57
REMARK   25  A    between atoms: _60  and  _62
REMARK   26  A    between atoms: _62  and  _63
REMARK   27  A    between atoms: _62  and  _65
REMARK   28  A    between atoms: _68  and  _70
REMARK   29  A    between atoms: _70  and  _71
REMARK   30  A    between atoms: _73  and  _75
REMARK   31  A    between atoms: _75  and  _76
REMARK   32  A    between atoms: _75  and  _78
REMARK   33  A    between atoms: _78  and  _79
REMARK   34  A    between atoms: _82  and  _84
REMARK   35  A    between atoms: _84  and  _85
REMARK   36  A    between atoms: _84  and  _87
REMARK   37  A    between atoms: _90  and  _92
REMARK   38  A    between atoms: _92  and  _93
REMARK   39  A    between atoms: _92  and  _95
REMARK   40  A    between atoms: _95  and  _96
REMARK   41  A    between atoms: _101  and  _103
REMARK   42  A    between atoms: _103  and  _104
REMARK   43  A    between atoms: _103  and  _106
REMARK   44  A    between atoms: _106  and  _107
REMARK   45  A    between atoms: _110  and  _112
REMARK   46  A    between atoms: _112  and  _113
REMARK   47  A    between atoms: _112  and  _115
REMARK   48  A    between atoms: _118  and  _120
REMARK   49  A    between atoms: _120  and  _121
REMARK   50  A    between atoms: _120  and  _123
REMARK   51  A    between atoms: _123  and  _124
REMARK   52  A    between atoms: _129  and  _131
REMARK   53  A    between atoms: _131  and  _132
REMARK   54  A    between atoms: _131  and  _134
REMARK   55  A    between atoms: _134  and  _135
REMARK   56  A    between atoms: _138  and  _139
REMARK   57  A    between atoms: _144  and  _146
REMARK   58  A    between atoms: _146  and  _147
REMARK   59  A    between atoms: _149  and  _151
REMARK   60  A    between atoms: _151  and  _152
REMARK   61  A    between atoms: _151  and  _154
REMARK   62  A    between atoms: _154  and  _155
REMARK   63  A    between atoms: _158  and  _160
REMARK   64  A    between atoms: _160  and  _161
REMARK   65  A    between atoms: _160  and  _163
REMARK   66  A    between atoms: _163  and  _164
REMARK   67  A    between atoms: _167  and  _169
REMARK   68  A    between atoms: _169  and  _170
REMARK   69  A    between atoms: _169  and  _172
REMARK   70  A    between atoms: _172  and  _173
REMARK   71  A    between atoms: _176  and  _178
REMARK   72  A    between atoms: _178  and  _179
REMARK   73  A    between atoms: _182  and  _184
REMARK   74  A    between atoms: _184  and  _185
REMARK   75  A    between atoms: _187  and  _189
REMARK   76  A    between atoms: _189  and  _190
REMARK   77  A    between atoms: _189  and  _192
REMARK   78  A    between atoms: _192  and  _193
REMARK   79  A    between atoms: _198  and  _199
REMARK   80  A    between atoms: _201  and  _203
REMARK   81  A    between atoms: _203  and  _204
REMARK   82  A    between atoms: _203  and  _206
REMARK   83  A    between atoms: _206  and  _207
REMARK   84  A    between atoms: _207  and  _208
REMARK   85  A    between atoms: _208  and  _209
REMARK   86  A    between atoms: _218  and  _220
REMARK   87  A    between atoms: _220  and  _221
REMARK   88  A    between atoms: _223  and  _225
REMARK   89  A    between atoms: _225  and  _226
REMARK   90  A    between atoms: _225  and  _228
REMARK   91  A    between atoms: _228  and  _229
REMARK   92  A    between atoms: _229  and  _230
REMARK   93  A    between atoms: _233  and  _235
REMARK   94  A    between atoms: _235  and  _236
REMARK   95  A    between atoms: _235  and  _238
REMARK   96  A    between atoms: _238  and  _239
REMARK   97  A    between atoms: _242  and  _244
REMARK   98  A    between atoms: _244  and  _245
REMARK   99  A    between atoms: _244  and  _247
REMARK  100  A    between atoms: _247  and  _248
REMARK  101  A    between atoms: _248  and  _249
REMARK  102  A    between atoms: _249  and  _250
REMARK  103  A    between atoms: _250  and  _251
REMARK  104  A    between atoms: _255  and  _257
REMARK  105  A    between atoms: _257  and  _258
REMARK  106  A    between atoms: _257  and  _260
REMARK  107  A    between atoms: _263  and  _265
REMARK  108  A    between atoms: _265  and  _266
REMARK  109  A    between atoms: _269  and  _271
REMARK  110  A    between atoms: _271  and  _272
REMARK  111  A    between atoms: _271  and  _274
REMARK  112  A    between atoms: _274  and  _275
REMARK  113  A    between atoms: _278  and  _280
REMARK  114  A    between atoms: _280  and  _281
REMARK  115  A    between atoms: _280  and  _283
REMARK  116  A    between atoms: _283  and  _284
REMARK  117  A    between atoms: _284  and  _285
REMARK  118  A    between atoms: _285  and  _286
REMARK  119  A    between atoms: _295  and  _297
REMARK  120  A    between atoms: _297  and  _298
REMARK  121  A    between atoms: _301  and  _303
REMARK  122  A    between atoms: _303  and  _304
REMARK  123  A    between atoms: _303  and  _306
REMARK  124  A    between atoms: _306  and  _307
REMARK  125  A    between atoms: _312  and  _314
REMARK  126  A    between atoms: _314  and  _315
REMARK  127  A    between atoms: _314  and  _317
REMARK  128  A    between atoms: _317  and  _318
REMARK  129  A    between atoms: _321  and  _323
REMARK  130  A    between atoms: _323  and  _324
REMARK  131  A    between atoms: _327  and  _329
REMARK  132  A    between atoms: _329  and  _330
REMARK  133  A    between atoms: _332  and  _334
REMARK  134  A    between atoms: _334  and  _335
REMARK  135  A    between atoms: _334  and  _337
REMARK  136  A    between atoms: _337  and  _338
REMARK  137  A    between atoms: _341  and  _343
REMARK  138  A    between atoms: _343  and  _344
REMARK  139  A    between atoms: _343  and  _346
REMARK  140  A    between atoms: _346  and  _347
REMARK  141  A    between atoms: _353  and  _354
REMARK  142  A    between atoms: _359  and  _361
REMARK  143  A    between atoms: _361  and  _362
REMARK  144  A    between atoms: _361  and  _364
REMARK  145  A    between atoms: _364  and  _365
REMARK  146  A    between atoms: _365  and  _366
REMARK  147  A    between atoms: _366  and  _367
REMARK  148  A    between atoms: _376  and  _378
REMARK  149  A    between atoms: _378  and  _379
REMARK  150  A    between atoms: _378  and  _381
REMARK  151  A    between atoms: _381  and  _382
REMARK  152  A    between atoms: _384  and  _386
REMARK  153  A    between atoms: _386  and  _387
REMARK  154  A    between atoms: _389  and  _391
REMARK  155  A    between atoms: _391  and  _392
REMARK  156  A    between atoms: _391  and  _394
REMARK  157  A    between atoms: _394  and  _395
REMARK  158  A    between atoms: _398  and  _400
REMARK  159  A    between atoms: _400  and  _401
REMARK  160  A    between atoms: _404  and  _406
REMARK  161  A    between atoms: _406  and  _407
REMARK  162  A    between atoms: _406  and  _409
REMARK  163  A    between atoms: _409  and  _410
REMARK  164  A    between atoms: _413  and  _415
REMARK  165  A    between atoms: _415  and  _416
REMARK  166  A    between atoms: _415  and  _418
REMARK  167  A    between atoms: _420  and  _422
REMARK  168  A    between atoms: _422  and  _423
REMARK  169  A    between atoms: _422  and  _425
REMARK  170  A    between atoms: _425  and  _426
REMARK  171  A    between atoms: _426  and  _427
REMARK  172  A    between atoms: _427  and  _428
REMARK  173  A    between atoms: _437  and  _439
REMARK  174  A    between atoms: _439  and  _440
REMARK  175  A    between atoms: _443  and  _445
REMARK  176  A    between atoms: _445  and  _446
REMARK  177  A    between atoms: _445  and  _448
REMARK  178  A    between atoms: _448  and  _449
REMARK  179  A    between atoms: _449  and  _450
REMARK  180  A    between atoms: _455  and  _457
REMARK  181  A    between atoms: _457  and  _458
REMARK  182  A    between atoms: _457  and  _460
REMARK  183  A    between atoms: _460  and  _461
REMARK  184  A    between atoms: _464  and  _466
REMARK  185  A    between atoms: _466  and  _467
REMARK  186  A    between atoms: _466  and  _469
REMARK  187  A    between atoms: _469  and  _470
REMARK  188  A    between atoms: _470  and  _471
REMARK  189  A    between atoms: _471  and  _472
REMARK  190  A    between atoms: _481  and  _483
REMARK  191  A    between atoms: _483  and  _484
REMARK  192  A    between atoms: _486  and  _488
REMARK  193  A    between atoms: _488  and  _489
REMARK  194  A    between atoms: _488  and  _491
REMARK  195  A    between atoms: _491  and  _492
REMARK  196  A    between atoms: _495  and  _497
REMARK  197  A    between atoms: _497  and  _498
REMARK  198  A    between atoms: _500  and  _502
REMARK  199  A    between atoms: _502  and  _503
REMARK  200  A    between atoms: _505  and  _507
REMARK  201  A    between atoms: _507  and  _508
REMARK  202  A    between atoms: _507  and  _510
REMARK  203  A    between atoms: _510  and  _511
REMARK  204  A    between atoms: _516  and  _518
REMARK  205  A    between atoms: _518  and  _519
REMARK  206  A    between atoms: _521  and  _523
REMARK  207  A    between atoms: _523  and  _524
REMARK  208  A    between atoms: _523  and  _526
REMARK  209  A    between atoms: _526  and  _527
REMARK  210  A    between atoms: _529  and  _531
REMARK  211  A    between atoms: _531  and  _532
REMARK  212  A    between atoms: _531  and  _534
REMARK  213  A    between atoms: _534  and  _535
REMARK  214  A    between atoms: _537  and  _539
REMARK  215  A    between atoms: _539  and  _540
REMARK  216  A    between atoms: _542  and  _544
REMARK  217  A    between atoms: _544  and  _545
REMARK  218  A    between atoms: _547  and  _549
REMARK  219  A    between atoms: _549  and  _550
REMARK  220  A    between atoms: _549  and  _552
REMARK  221  A    between atoms: _552  and  _553
REMARK                            x       y       z     vdW  Elec       q    Type
REMARK                         _______ _______ _______ _____ _____    ______ ____
ROOT
ATOM      1  O   HOH     1      21.496   7.497  46.898  0.00  0.00    +0.000 OA
ENDROOT
TORSDOF 0
REMARK  Name = ../refined-set-2016/2py4/2py4_pocket.pdb
REMARK  221 active torsions:
REMARK  status: ('A' for Active; 'I' for Inactive)
REMARK    1  A    between atoms: _1  and  _3
REMARK    2  A    between atoms: _3  and  _4
REMARK    3  A    between atoms: _3  and  _6
REMARK    4  A    between atoms: _6  and  _7
REMARK    5  A    between atoms: _10  and  _12
REMARK    6  A    between atoms: _12  and  _13
REMARK    7  A    between atoms: _12  and  _15
REMARK    8  A    between atoms: _15  and  _16
REMARK    9  A    between atoms: _19  and  _21
REMARK   10  A    between atoms: _21  and  _22
REMARK   11  A    between atoms: _21  and  _24
REMARK   12  A    between atoms: _27  and  _29
REMARK   13  A    between atoms: _29  and  _30
REMARK   14  A    between atoms: _29  and  _32
REMARK   15  A    between atoms: _32  and  _33
REMARK   16  A    between atoms: _36  and  _38
REMARK   17  A    between atoms: _38  and  _39
REMARK   18  A    between atoms: _38  and  _41
REMARK   19  A    between atoms: _44  and  _46
REMARK   20  A    between atoms: _46  and  _47
REMARK   21  A    between atoms: _46  and  _49
REMARK   22  A    between atoms: _52  and  _54
REMARK   23  A    between atoms: _54  and  _55
REMARK   24  A    between atoms: _54  and  _57
REMARK   25  A    between atoms: _60  and  _62
REMARK   26  A    between atoms: _62  and  _63
REMARK   27  A    between atoms: _62  and  _65
REMARK   28  A    between atoms: _68  and  _70
REMARK   29  A    between atoms: _70  and  _71
REMARK   30  A    between atoms: _73  and  _75
REMARK   31  A    between atoms: _75  and  _76
REMARK   32  A    between atoms: _75  and  _78
REMARK   33  A    between atoms: _78  and  _79
REMARK   34  A    between atoms: _82  and  _84
REMARK   35  A    between atoms: _84  and  _85
REMARK   36  A    between atoms: _84  and  _87
REMARK   37  A    between atoms: _90  and  _92
REMARK   38  A    between atoms: _92  and  _93
REMARK   39  A    between atoms: _92  and  _95
REMARK   40  A    between atoms: _95  and  _96
REMARK   41  A    between atoms: _101  and  _103
REMARK   42  A    between atoms: _103  and  _104
REMARK   43  A    between atoms: _103  and  _106
REMARK   44  A    between atoms: _106  and  _107
REMARK   45  A    between atoms: _110  and  _112
REMARK   46  A    between atoms: _112  and  _113
REMARK   47  A    between atoms: _112  and  _115
REMARK   48  A    between atoms: _118  and  _120
REMARK   49  A    between atoms: _120  and  _121
REMARK   50  A    between atoms: _120  and  _123
REMARK   51  A    between atoms: _123  and  _124
REMARK   52  A    between atoms: _129  and  _131
REMARK   53  A    between atoms: _131  and  _132
REMARK   54  A    between atoms: _131  and  _134
REMARK   55  A    between atoms: _134  and  _135
REMARK   56  A    between atoms: _138  and  _139
REMARK   57  A    between atoms: _144  and  _146
REMARK   58  A    between atoms: _146  and  _147
REMARK   59  A    between atoms: _149  and  _151
REMARK   60  A    between atoms: _151  and  _152
REMARK   61  A    between atoms: _151  and  _154
REMARK   62  A    between atoms: _154  and  _155
REMARK   63  A    between atoms: _158  and  _160
REMARK   64  A    between atoms: _160  and  _161
REMARK   65  A    between atoms: _160  and  _163
REMARK   66  A    between atoms: _163  and  _164
REMARK   67  A    between atoms: _167  and  _169
REMARK   68  A    between atoms: _169  and  _170
REMARK   69  A    between atoms: _169  and  _172
REMARK   70  A    between atoms: _172  and  _173
REMARK   71  A    between atoms: _176  and  _178
REMARK   72  A    between atoms: _178  and  _179
REMARK   73  A    between atoms: _182  and  _184
REMARK   74  A    between atoms: _184  and  _185
REMARK   75  A    between atoms: _187  and  _189
REMARK   76  A    between atoms: _189  and  _190
REMARK   77  A    between atoms: _189  and  _192
REMARK   78  A    between atoms: _192  and  _193
REMARK   79  A    between atoms: _198  and  _199
REMARK   80  A    between atoms: _201  and  _203
REMARK   81  A    between atoms: _203  and  _204
REMARK   82  A    between atoms: _203  and  _206
REMARK   83  A    between atoms: _206  and  _207
REMARK   84  A    between atoms: _207  and  _208
REMARK   85  A    between atoms: _208  and  _209
REMARK   86  A    between atoms: _218  and  _220
REMARK   87  A    between atoms: _220  and  _221
REMARK   88  A    between atoms: _223  and  _225
REMARK   89  A    between atoms: _225  and  _226
REMARK   90  A    between atoms: _225  and  _228
REMARK   91  A    between atoms: _228  and  _229
REMARK   92  A    between atoms: _229  and  _230
REMARK   93  A    between atoms: _233  and  _235
REMARK   94  A    between atoms: _235  and  _236
REMARK   95  A    between atoms: _235  and  _238
REMARK   96  A    between atoms: _238  and  _239
REMARK   97  A    between atoms: _242  and  _244
REMARK   98  A    between atoms: _244  and  _245
REMARK   99  A    between atoms: _244  and  _247
REMARK  100  A    between atoms: _247  and  _248
REMARK  101  A    between atoms: _248  and  _249
REMARK  102  A    between atoms: _249  and  _250
REMARK  103  A    between atoms: _250  and  _251
REMARK  104  A    between atoms: _255  and  _257
REMARK  105  A    between atoms: _257  and  _258
REMARK  106  A    between atoms: _257  and  _260
REMARK  107  A    between atoms: _263  and  _265
REMARK  108  A    between atoms: _265  and  _266
REMARK  109  A    between atoms: _269  and  _271
REMARK  110  A    between atoms: _271  and  _272
REMARK  111  A    between atoms: _271  and  _274
REMARK  112  A    between atoms: _274  and  _275
REMARK  113  A    between atoms: _278  and  _280
REMARK  114  A    between atoms: _280  and  _281
REMARK  115  A    between atoms: _280  and  _283
REMARK  116  A    between atoms: _283  and  _284
REMARK  117  A    between atoms: _284  and  _285
REMARK  118  A    between atoms: _285  and  _286
REMARK  119  A    between atoms: _295  and  _297
REMARK  120  A    between atoms: _297  and  _298
REMARK  121  A    between atoms: _301  and  _303
REMARK  122  A    between atoms: _303  and  _304
REMARK  123  A    between atoms: _303  and  _306
REMARK  124  A    between atoms: _306  and  _307
REMARK  125  A    between atoms: _312  and  _314
REMARK  126  A    between atoms: _314  and  _315
REMARK  127  A    between atoms: _314  and  _317
REMARK  128  A    between atoms: _317  and  _318
REMARK  129  A    between atoms: _321  and  _323
REMARK  130  A    between atoms: _323  and  _324
REMARK  131  A    between atoms: _327  and  _329
REMARK  132  A    between atoms: _329  and  _330
REMARK  133  A    between atoms: _332  and  _334
REMARK  134  A    between atoms: _334  and  _335
REMARK  135  A    between atoms: _334  and  _337
REMARK  136  A    between atoms: _337  and  _338
REMARK  137  A    between atoms: _341  and  _343
REMARK  138  A    between atoms: _343  and  _344
REMARK  139  A    between atoms: _343  and  _346
REMARK  140  A    between atoms: _346  and  _347
REMARK  141  A    between atoms: _353  and  _354
REMARK  142  A    between atoms: _359  and  _361
REMARK  143  A    between atoms: _361  and  _362
REMARK  144  A    between atoms: _361  and  _364
REMARK  145  A    between atoms: _364  and  _365
REMARK  146  A    between atoms: _365  and  _366
REMARK  147  A    between atoms: _366  and  _367
REMARK  148  A    between atoms: _376  and  _378
REMARK  149  A    between atoms: _378  and  _379
REMARK  150  A    between atoms: _378  and  _381
REMARK  151  A    between atoms: _381  and  _382
REMARK  152  A    between atoms: _384  and  _386
REMARK  153  A    between atoms: _386  and  _387
REMARK  154  A    between atoms: _389  and  _391
REMARK  155  A    between atoms: _391  and  _392
REMARK  156  A    between atoms: _391  and  _394
REMARK  157  A    between atoms: _394  and  _395
REMARK  158  A    between atoms: _398  and  _400
REMARK  159  A    between atoms: _400  and  _401
REMARK  160  A    between atoms: _404  and  _406
REMARK  161  A    between atoms: _406  and  _407
REMARK  162  A    between atoms: _406  and  _409
REMARK  163  A    between atoms: _409  and  _410
REMARK  164  A    between atoms: _413  and  _415
REMARK  165  A    between atoms: _415  and  _416
REMARK  166  A    between atoms: _415  and  _418
REMARK  167  A    between atoms: _420  and  _422
REMARK  168  A    between atoms: _422  and  _423
REMARK  169  A    between atoms: _422  and  _425
REMARK  170  A    between atoms: _425  and  _426
REMARK  171  A    between atoms: _426  and  _427
REMARK  172  A    between atoms: _427  and  _428
REMARK  173  A    between atoms: _437  and  _439
REMARK  174  A    between atoms: _439  and  _440
REMARK  175  A    between atoms: _443  and  _445
REMARK  176  A    between atoms: _445  and  _446
REMARK  177  A    between atoms: _445  and  _448
REMARK  178  A    between atoms: _448  and  _449
REMARK  179  A    between atoms: _449  and  _450
REMARK  180  A    between atoms: _455  and  _457
REMARK  181  A    between atoms: _457  and  _458
REMARK  182  A    between atoms: _457  and  _460
REMARK  183  A    between atoms: _460  and  _461
REMARK  184  A    between atoms: _464  and  _466
REMARK  185  A    between atoms: _466  and  _467
REMARK  186  A    between atoms: _466  and  _469
REMARK  187  A    between atoms: _469  and  _470
REMARK  188  A    between atoms: _470  and  _471
REMARK  189  A    between atoms: _471  and  _472
REMARK  190  A    between atoms: _481  and  _483
REMARK  191  A    between atoms: _483  and  _484
REMARK  192  A    between atoms: _486  and  _488
REMARK  193  A    between atoms: _488  and  _489
REMARK  194  A    between atoms: _488  and  _491
REMARK  195  A    between atoms: _491  and  _492
REMARK  196  A    between atoms: _495  and  _497
REMARK  197  A    between atoms: _497  and  _498
REMARK  198  A    between atoms: _500  and  _502
REMARK  199  A    between atoms: _502  and  _503
REMARK  200  A    between atoms: _505  and  _507
REMARK  201  A    between atoms: _507  and  _508
REMARK  202  A    between atoms: _507  and  _510
REMARK  203  A    between atoms: _510  and  _511
REMARK  204  A    between atoms: _516  and  _518
REMARK  205  A    between atoms: _518  and  _519
REMARK  206  A    between atoms: _521  and  _523
REMARK  207  A    between atoms: _523  and  _524
REMARK  208  A    between atoms: _523  and  _526
REMARK  209  A    between atoms: _526  and  _527
REMARK  210  A    between atoms: _529  and  _531
REMARK  211  A    between atoms: _531  and  _532
REMARK  212  A    between atoms: _531  and  _534
REMARK  213  A    between atoms: _534  and  _535
REMARK  214  A    between atoms: _537  and  _539
REMARK  215  A    between atoms: _539  and  _540
REMARK  216  A    between atoms: _542  and  _544
REMARK  217  A    between atoms: _544  and  _545
REMARK  218  A    between atoms: _547  and  _549
REMARK  219  A    between atoms: _549  and  _550
REMARK  220  A    between atoms: _549  and  _552
REMARK  221  A    between atoms: _552  and  _553
REMARK                            x       y       z     vdW  Elec       q    Type
REMARK                         _______ _______ _______ _____ _____    ______ ____
ROOT
ATOM      1  O   HOH     1      17.420   9.902  30.256  0.00  0.00    +0.000 OA
ENDROOT
TORSDOF 0
REMARK  Name = ../refined-set-2016/2py4/2py4_pocket.pdb
REMARK  221 active torsions:
REMARK  status: ('A' for Active; 'I' for Inactive)
REMARK    1  A    between atoms: _1  and  _3
REMARK    2  A    between atoms: _3  and  _4
REMARK    3  A    between atoms: _3  and  _6
REMARK    4  A    between atoms: _6  and  _7
REMARK    5  A    between atoms: _10  and  _12
REMARK    6  A    between atoms: _12  and  _13
REMARK    7  A    between atoms: _12  and  _15
REMARK    8  A    between atoms: _15  and  _16
REMARK    9  A    between atoms: _19  and  _21
REMARK   10  A    between atoms: _21  and  _22
REMARK   11  A    between atoms: _21  and  _24
REMARK   12  A    between atoms: _27  and  _29
REMARK   13  A    between atoms: _29  and  _30
REMARK   14  A    between atoms: _29  and  _32
REMARK   15  A    between atoms: _32  and  _33
REMARK   16  A    between atoms: _36  and  _38
REMARK   17  A    between atoms: _38  and  _39
REMARK   18  A    between atoms: _38  and  _41
REMARK   19  A    between atoms: _44  and  _46
REMARK   20  A    between atoms: _46  and  _47
REMARK   21  A    between atoms: _46  and  _49
REMARK   22  A    between atoms: _52  and  _54
REMARK   23  A    between atoms: _54  and  _55
REMARK   24  A    between atoms: _54  and  _57
REMARK   25  A    between atoms: _60  and  _62
REMARK   26  A    between atoms: _62  and  _63
REMARK   27  A    between atoms: _62  and  _65
REMARK   28  A    between atoms: _68  and  _70
REMARK   29  A    between atoms: _70  and  _71
REMARK   30  A    between atoms: _73  and  _75
REMARK   31  A    between atoms: _75  and  _76
REMARK   32  A    between atoms: _75  and  _78
REMARK   33  A    between atoms: _78  and  _79
REMARK   34  A    between atoms: _82  and  _84
REMARK   35  A    between atoms: _84  and  _85
REMARK   36  A    between atoms: _84  and  _87
REMARK   37  A    between atoms: _90  and  _92
REMARK   38  A    between atoms: _92  and  _93
REMARK   39  A    between atoms: _92  and  _95
REMARK   40  A    between atoms: _95  and  _96
REMARK   41  A    between atoms: _101  and  _103
REMARK   42  A    between atoms: _103  and  _104
REMARK   43  A    between atoms: _103  and  _106
REMARK   44  A    between atoms: _106  and  _107
REMARK   45  A    between atoms: _110  and  _112
REMARK   46  A    between atoms: _112  and  _113
REMARK   47  A    between atoms: _112  and  _115
REMARK   48  A    between atoms: _118  and  _120
REMARK   49  A    between atoms: _120  and  _121
REMARK   50  A    between atoms: _120  and  _123
REMARK   51  A    between atoms: _123  and  _124
REMARK   52  A    between atoms: _129  and  _131
REMARK   53  A    between atoms: _131  and  _132
REMARK   54  A    between atoms: _131  and  _134
REMARK   55  A    between atoms: _134  and  _135
REMARK   56  A    between atoms: _138  and  _139
REMARK   57  A    between atoms: _144  and  _146
REMARK   58  A    between atoms: _146  and  _147
REMARK   59  A    between atoms: _149  and  _151
REMARK   60  A    between atoms: _151  and  _152
REMARK   61  A    between atoms: _151  and  _154
REMARK   62  A    between atoms: _154  and  _155
REMARK   63  A    between atoms: _158  and  _160
REMARK   64  A    between atoms: _160  and  _161
REMARK   65  A    between atoms: _160  and  _163
REMARK   66  A    between atoms: _163  and  _164
REMARK   67  A    between atoms: _167  and  _169
REMARK   68  A    between atoms: _169  and  _170
REMARK   69  A    between atoms: _169  and  _172
REMARK   70  A    between atoms: _172  and  _173
REMARK   71  A    between atoms: _176  and  _178
REMARK   72  A    between atoms: _178  and  _179
REMARK   73  A    between atoms: _182  and  _184
REMARK   74  A    between atoms: _184  and  _185
REMARK   75  A    between atoms: _187  and  _189
REMARK   76  A    between atoms: _189  and  _190
REMARK   77  A    between atoms: _189  and  _192
REMARK   78  A    between atoms: _192  and  _193
REMARK   79  A    between atoms: _198  and  _199
REMARK   80  A    between atoms: _201  and  _203
REMARK   81  A    between atoms: _203  and  _204
REMARK   82  A    between atoms: _203  and  _206
REMARK   83  A    between atoms: _206  and  _207
REMARK   84  A    between atoms: _207  and  _208
REMARK   85  A    between atoms: _208  and  _209
REMARK   86  A    between atoms: _218  and  _220
REMARK   87  A    between atoms: _220  and  _221
REMARK   88  A    between atoms: _223  and  _225
REMARK   89  A    between atoms: _225  and  _226
REMARK   90  A    between atoms: _225  and  _228
REMARK   91  A    between atoms: _228  and  _229
REMARK   92  A    between atoms: _229  and  _230
REMARK   93  A    between atoms: _233  and  _235
REMARK   94  A    between atoms: _235  and  _236
REMARK   95  A    between atoms: _235  and  _238
REMARK   96  A    between atoms: _238  and  _239
REMARK   97  A    between atoms: _242  and  _244
REMARK   98  A    between atoms: _244  and  _245
REMARK   99  A    between atoms: _244  and  _247
REMARK  100  A    between atoms: _247  and  _248
REMARK  101  A    between atoms: _248  and  _249
REMARK  102  A    between atoms: _249  and  _250
REMARK  103  A    between atoms: _250  and  _251
REMARK  104  A    between atoms: _255  and  _257
REMARK  105  A    between atoms: _257  and  _258
REMARK  106  A    between atoms: _257  and  _260
REMARK  107  A    between atoms: _263  and  _265
REMARK  108  A    between atoms: _265  and  _266
REMARK  109  A    between atoms: _269  and  _271
REMARK  110  A    between atoms: _271  and  _272
REMARK  111  A    between atoms: _271  and  _274
REMARK  112  A    between atoms: _274  and  _275
REMARK  113  A    between atoms: _278  and  _280
REMARK  114  A    between atoms: _280  and  _281
REMARK  115  A    between atoms: _280  and  _283
REMARK  116  A    between atoms: _283  and  _284
REMARK  117  A    between atoms: _284  and  _285
REMARK  118  A    between atoms: _285  and  _286
REMARK  119  A    between atoms: _295  and  _297
REMARK  120  A    between atoms: _297  and  _298
REMARK  121  A    between atoms: _301  and  _303
REMARK  122  A    between atoms: _303  and  _304
REMARK  123  A    between atoms: _303  and  _306
REMARK  124  A    between atoms: _306  and  _307
REMARK  125  A    between atoms: _312  and  _314
REMARK  126  A    between atoms: _314  and  _315
REMARK  127  A    between atoms: _314  and  _317
REMARK  128  A    between atoms: _317  and  _318
REMARK  129  A    between atoms: _321  and  _323
REMARK  130  A    between atoms: _323  and  _324
REMARK  131  A    between atoms: _327  and  _329
REMARK  132  A    between atoms: _329  and  _330
REMARK  133  A    between atoms: _332  and  _334
REMARK  134  A    between atoms: _334  and  _335
REMARK  135  A    between atoms: _334  and  _337
REMARK  136  A    between atoms: _337  and  _338
REMARK  137  A    between atoms: _341  and  _343
REMARK  138  A    between atoms: _343  and  _344
REMARK  139  A    between atoms: _343  and  _346
REMARK  140  A    between atoms: _346  and  _347
REMARK  141  A    between atoms: _353  and  _354
REMARK  142  A    between atoms: _359  and  _361
REMARK  143  A    between atoms: _361  and  _362
REMARK  144  A    between atoms: _361  and  _364
REMARK  145  A    between atoms: _364  and  _365
REMARK  146  A    between atoms: _365  and  _366
REMARK  147  A    between atoms: _366  and  _367
REMARK  148  A    between atoms: _376  and  _378
REMARK  149  A    between atoms: _378  and  _379
REMARK  150  A    between atoms: _378  and  _381
REMARK  151  A    between atoms: _381  and  _382
REMARK  152  A    between atoms: _384  and  _386
REMARK  153  A    between atoms: _386  and  _387
REMARK  154  A    between atoms: _389  and  _391
REMARK  155  A    between atoms: _391  and  _392
REMARK  156  A    between atoms: _391  and  _394
REMARK  157  A    between atoms: _394  and  _395
REMARK  158  A    between atoms: _398  and  _400
REMARK  159  A    between atoms: _400  and  _401
REMARK  160  A    between atoms: _404  and  _406
REMARK  161  A    between atoms: _406  and  _407
REMARK  162  A    between atoms: _406  and  _409
REMARK  163  A    between atoms: _409  and  _410
REMARK  164  A    between atoms: _413  and  _415
REMARK  165  A    between atoms: _415  and  _416
REMARK  166  A    between atoms: _415  and  _418
REMARK  167  A    between atoms: _420  and  _422
REMARK  168  A    between atoms: _422  and  _423
REMARK  169  A    between atoms: _422  and  _425
REMARK  170  A    between atoms: _425  and  _426
REMARK  171  A    between atoms: _426  and  _427
REMARK  172  A    between atoms: _427  and  _428
REMARK  173  A    between atoms: _437  and  _439
REMARK  174  A    between atoms: _439  and  _440
REMARK  175  A    between atoms: _443  and  _445
REMARK  176  A    between atoms: _445  and  _446
REMARK  177  A    between atoms: _445  and  _448
REMARK  178  A    between atoms: _448  and  _449
REMARK  179  A    between atoms: _449  and  _450
REMARK  180  A    between atoms: _455  and  _457
REMARK  181  A    between atoms: _457  and  _458
REMARK  182  A    between atoms: _457  and  _460
REMARK  183  A    between atoms: _460  and  _461
REMARK  184  A    between atoms: _464  and  _466
REMARK  185  A    between atoms: _466  and  _467
REMARK  186  A    between atoms: _466  and  _469
REMARK  187  A    between atoms: _469  and  _470
REMARK  188  A    between atoms: _470  and  _471
REMARK  189  A    between atoms: _471  and  _472
REMARK  190  A    between atoms: _481  and  _483
REMARK  191  A    between atoms: _483  and  _484
REMARK  192  A    between atoms: _486  and  _488
REMARK  193  A    between atoms: _488  and  _489
REMARK  194  A    between atoms: _488  and  _491
REMARK  195  A    between atoms: _491  and  _492
REMARK  196  A    between atoms: _495  and  _497
REMARK  197  A    between atoms: _497  and  _498
REMARK  198  A    between atoms: _500  and  _502
REMARK  199  A    between atoms: _502  and  _503
REMARK  200  A    between atoms: _505  and  _507
REMARK  201  A    between atoms: _507  and  _508
REMARK  202  A    between atoms: _507  and  _510
REMARK  203  A    between atoms: _510  and  _511
REMARK  204  A    between atoms: _516  and  _518
REMARK  205  A    between atoms: _518  and  _519
REMARK  206  A    between atoms: _521  and  _523
REMARK  207  A    between atoms: _523  and  _524
REMARK  208  A    between atoms: _523  and  _526
REMARK  209  A    between atoms: _526  and  _527
REMARK  210  A    between atoms: _529  and  _531
REMARK  211  A    between atoms: _531  and  _532
REMARK  212  A    between atoms: _531  and  _534
REMARK  213  A    between atoms: _534  and  _535
REMARK  214  A    between atoms: _537  and  _539
REMARK  215  A    between atoms: _539  and  _540
REMARK  216  A    between atoms: _542  and  _544
REMARK  217  A    between atoms: _544  and  _545
REMARK  218  A    between atoms: _547  and  _549
REMARK  219  A    between atoms: _549  and  _550
REMARK  220  A    between atoms: _549  and  _552
REMARK  221  A    between atoms: _552  and  _553
REMARK                            x       y       z     vdW  Elec       q    Type
REMARK                         _______ _______ _______ _____ _____    ______ ____
ROOT
ATOM      1  O   HOH     1      13.167   6.846  30.741  0.00  0.00    +0.000 OA
ENDROOT
TORSDOF 0
REMARK  Name = ../refined-set-2016/2py4/2py4_pocket.pdb
REMARK  221 active torsions:
REMARK  status: ('A' for Active; 'I' for Inactive)
REMARK    1  A    between atoms: _1  and  _3
REMARK    2  A    between atoms: _3  and  _4
REMARK    3  A    between atoms: _3  and  _6
REMARK    4  A    between atoms: _6  and  _7
REMARK    5  A    between atoms: _10  and  _12
REMARK    6  A    between atoms: _12  and  _13
REMARK    7  A    between atoms: _12  and  _15
REMARK    8  A    between atoms: _15  and  _16
REMARK    9  A    between atoms: _19  and  _21
REMARK   10  A    between atoms: _21  and  _22
REMARK   11  A    between atoms: _21  and  _24
REMARK   12  A    between atoms: _27  and  _29
REMARK   13  A    between atoms: _29  and  _30
REMARK   14  A    between atoms: _29  and  _32
REMARK   15  A    between atoms: _32  and  _33
REMARK   16  A    between atoms: _36  and  _38
REMARK   17  A    between atoms: _38  and  _39
REMARK   18  A    between atoms: _38  and  _41
REMARK   19  A    between atoms: _44  and  _46
REMARK   20  A    between atoms: _46  and  _47
REMARK   21  A    between atoms: _46  and  _49
REMARK   22  A    between atoms: _52  and  _54
REMARK   23  A    between atoms: _54  and  _55
REMARK   24  A    between atoms: _54  and  _57
REMARK   25  A    between atoms: _60  and  _62
REMARK   26  A    between atoms: _62  and  _63
REMARK   27  A    between atoms: _62  and  _65
REMARK   28  A    between atoms: _68  and  _70
REMARK   29  A    between atoms: _70  and  _71
REMARK   30  A    between atoms: _73  and  _75
REMARK   31  A    between atoms: _75  and  _76
REMARK   32  A    between atoms: _75  and  _78
REMARK   33  A    between atoms: _78  and  _79
REMARK   34  A    between atoms: _82  and  _84
REMARK   35  A    between atoms: _84  and  _85
REMARK   36  A    between atoms: _84  and  _87
REMARK   37  A    between atoms: _90  and  _92
REMARK   38  A    between atoms: _92  and  _93
REMARK   39  A    between atoms: _92  and  _95
REMARK   40  A    between atoms: _95  and  _96
REMARK   41  A    between atoms: _101  and  _103
REMARK   42  A    between atoms: _103  and  _104
REMARK   43  A    between atoms: _103  and  _106
REMARK   44  A    between atoms: _106  and  _107
REMARK   45  A    between atoms: _110  and  _112
REMARK   46  A    between atoms: _112  and  _113
REMARK   47  A    between atoms: _112  and  _115
REMARK   48  A    between atoms: _118  and  _120
REMARK   49  A    between atoms: _120  and  _121
REMARK   50  A    between atoms: _120  and  _123
REMARK   51  A    between atoms: _123  and  _124
REMARK   52  A    between atoms: _129  and  _131
REMARK   53  A    between atoms: _131  and  _132
REMARK   54  A    between atoms: _131  and  _134
REMARK   55  A    between atoms: _134  and  _135
REMARK   56  A    between atoms: _138  and  _139
REMARK   57  A    between atoms: _144  and  _146
REMARK   58  A    between atoms: _146  and  _147
REMARK   59  A    between atoms: _149  and  _151
REMARK   60  A    between atoms: _151  and  _152
REMARK   61  A    between atoms: _151  and  _154
REMARK   62  A    between atoms: _154  and  _155
REMARK   63  A    between atoms: _158  and  _160
REMARK   64  A    between atoms: _160  and  _161
REMARK   65  A    between atoms: _160  and  _163
REMARK   66  A    between atoms: _163  and  _164
REMARK   67  A    between atoms: _167  and  _169
REMARK   68  A    between atoms: _169  and  _170
REMARK   69  A    between atoms: _169  and  _172
REMARK   70  A    between atoms: _172  and  _173
REMARK   71  A    between atoms: _176  and  _178
REMARK   72  A    between atoms: _178  and  _179
REMARK   73  A    between atoms: _182  and  _184
REMARK   74  A    between atoms: _184  and  _185
REMARK   75  A    between atoms: _187  and  _189
REMARK   76  A    between atoms: _189  and  _190
REMARK   77  A    between atoms: _189  and  _192
REMARK   78  A    between atoms: _192  and  _193
REMARK   79  A    between atoms: _198  and  _199
REMARK   80  A    between atoms: _201  and  _203
REMARK   81  A    between atoms: _203  and  _204
REMARK   82  A    between atoms: _203  and  _206
REMARK   83  A    between atoms: _206  and  _207
REMARK   84  A    between atoms: _207  and  _208
REMARK   85  A    between atoms: _208  and  _209
REMARK   86  A    between atoms: _218  and  _220
REMARK   87  A    between atoms: _220  and  _221
REMARK   88  A    between atoms: _223  and  _225
REMARK   89  A    between atoms: _225  and  _226
REMARK   90  A    between atoms: _225  and  _228
REMARK   91  A    between atoms: _228  and  _229
REMARK   92  A    between atoms: _229  and  _230
REMARK   93  A    between atoms: _233  and  _235
REMARK   94  A    between atoms: _235  and  _236
REMARK   95  A    between atoms: _235  and  _238
REMARK   96  A    between atoms: _238  and  _239
REMARK   97  A    between atoms: _242  and  _244
REMARK   98  A    between atoms: _244  and  _245
REMARK   99  A    between atoms: _244  and  _247
REMARK  100  A    between atoms: _247  and  _248
REMARK  101  A    between atoms: _248  and  _249
REMARK  102  A    between atoms: _249  and  _250
REMARK  103  A    between atoms: _250  and  _251
REMARK  104  A    between atoms: _255  and  _257
REMARK  105  A    between atoms: _257  and  _258
REMARK  106  A    between atoms: _257  and  _260
REMARK  107  A    between atoms: _263  and  _265
REMARK  108  A    between atoms: _265  and  _266
REMARK  109  A    between atoms: _269  and  _271
REMARK  110  A    between atoms: _271  and  _272
REMARK  111  A    between atoms: _271  and  _274
REMARK  112  A    between atoms: _274  and  _275
REMARK  113  A    between atoms: _278  and  _280
REMARK  114  A    between atoms: _280  and  _281
REMARK  115  A    between atoms: _280  and  _283
REMARK  116  A    between atoms: _283  and  _284
REMARK  117  A    between atoms: _284  and  _285
REMARK  118  A    between atoms: _285  and  _286
REMARK  119  A    between atoms: _295  and  _297
REMARK  120  A    between atoms: _297  and  _298
REMARK  121  A    between atoms: _301  and  _303
REMARK  122  A    between atoms: _303  and  _304
REMARK  123  A    between atoms: _303  and  _306
REMARK  124  A    between atoms: _306  and  _307
REMARK  125  A    between atoms: _312  and  _314
REMARK  126  A    between atoms: _314  and  _315
REMARK  127  A    between atoms: _314  and  _317
REMARK  128  A    between atoms: _317  and  _318
REMARK  129  A    between atoms: _321  and  _323
REMARK  130  A    between atoms: _323  and  _324
REMARK  131  A    between atoms: _327  and  _329
REMARK  132  A    between atoms: _329  and  _330
REMARK  133  A    between atoms: _332  and  _334
REMARK  134  A    between atoms: _334  and  _335
REMARK  135  A    between atoms: _334  and  _337
REMARK  136  A    between atoms: _337  and  _338
REMARK  137  A    between atoms: _341  and  _343
REMARK  138  A    between atoms: _343  and  _344
REMARK  139  A    between atoms: _343  and  _346
REMARK  140  A    between atoms: _346  and  _347
REMARK  141  A    between atoms: _353  and  _354
REMARK  142  A    between atoms: _359  and  _361
REMARK  143  A    between atoms: _361  and  _362
REMARK  144  A    between atoms: _361  and  _364
REMARK  145  A    between atoms: _364  and  _365
REMARK  146  A    between atoms: _365  and  _366
REMARK  147  A    between atoms: _366  and  _367
REMARK  148  A    between atoms: _376  and  _378
REMARK  149  A    between atoms: _378  and  _379
REMARK  150  A    between atoms: _378  and  _381
REMARK  151  A    between atoms: _381  and  _382
REMARK  152  A    between atoms: _384  and  _386
REMARK  153  A    between atoms: _386  and  _387
REMARK  154  A    between atoms: _389  and  _391
REMARK  155  A    between atoms: _391  and  _392
REMARK  156  A    between atoms: _391  and  _394
REMARK  157  A    between atoms: _394  and  _395
REMARK  158  A    between atoms: _398  and  _400
REMARK  159  A    between atoms: _400  and  _401
REMARK  160  A    between atoms: _404  and  _406
REMARK  161  A    between atoms: _406  and  _407
REMARK  162  A    between atoms: _406  and  _409
REMARK  163  A    between atoms: _409  and  _410
REMARK  164  A    between atoms: _413  and  _415
REMARK  165  A    between atoms: _415  and  _416
REMARK  166  A    between atoms: _415  and  _418
REMARK  167  A    between atoms: _420  and  _422
REMARK  168  A    between atoms: _422  and  _423
REMARK  169  A    between atoms: _422  and  _425
REMARK  170  A    between atoms: _425  and  _426
REMARK  171  A    between atoms: _426  and  _427
REMARK  172  A    between atoms: _427  and  _428
REMARK  173  A    between atoms: _437  and  _439
REMARK  174  A    between atoms: _439  and  _440
REMARK  175  A    between atoms: _443  and  _445
REMARK  176  A    between atoms: _445  and  _446
REMARK  177  A    between atoms: _445  and  _448
REMARK  178  A    between atoms: _448  and  _449
REMARK  179  A    between atoms: _449  and  _450
REMARK  180  A    between atoms: _455  and  _457
REMARK  181  A    between atoms: _457  and  _458
REMARK  182  A    between atoms: _457  and  _460
REMARK  183  A    between atoms: _460  and  _461
REMARK  184  A    between atoms: _464  and  _466
REMARK  185  A    between atoms: _466  and  _467
REMARK  186  A    between atoms: _466  and  _469
REMARK  187  A    between atoms: _469  and  _470
REMARK  188  A    between atoms: _470  and  _471
REMARK  189  A    between atoms: _471  and  _472
REMARK  190  A    between atoms: _481  and  _483
REMARK  191  A    between atoms: _483  and  _484
REMARK  192  A    between atoms: _486  and  _488
REMARK  193  A    between atoms: _488  and  _489
REMARK  194  A    between atoms: _488  and  _491
REMARK  195  A    between atoms: _491  and  _492
REMARK  196  A    between atoms: _495  and  _497
REMARK  197  A    between atoms: _497  and  _498
REMARK  198  A    between atoms: _500  and  _502
REMARK  199  A    between atoms: _502  and  _503
REMARK  200  A    between atoms: _505  and  _507
REMARK  201  A    between atoms: _507  and  _508
REMARK  202  A    between atoms: _507  and  _510
REMARK  203  A    between atoms: _510  and  _511
REMARK  204  A    between atoms: _516  and  _518
REMARK  205  A    between atoms: _518  and  _519
REMARK  206  A    between atoms: _521  and  _523
REMARK  207  A    between atoms: _523  and  _524
REMARK  208  A    between atoms: _523  and  _526
REMARK  209  A    between atoms: _526  and  _527
REMARK  210  A    between atoms: _529  and  _531
REMARK  211  A    between atoms: _531  and  _532
REMARK  212  A    between atoms: _531  and  _534
REMARK  213  A    between atoms: _534  and  _535
REMARK  214  A    between atoms: _537  and  _539
REMARK  215  A    between atoms: _539  and  _540
REMARK  216  A    between atoms: _542  and  _544
REMARK  217  A    between atoms: _544  and  _545
REMARK  218  A    between atoms: _547  and  _549
REMARK  219  A    between atoms: _549  and  _550
REMARK  220  A    between atoms: _549  and  _552
REMARK  221  A    between atoms: _552  and  _553
REMARK                            x       y       z     vdW  Elec       q    Type
REMARK                         _______ _______ _______ _____ _____    ______ ____
ROOT
ATOM      1  O   HOH     1      22.836   5.930  45.271  0.00  0.00    +0.000 OA
ENDROOT
TORSDOF 0
REMARK  Name = ../refined-set-2016/2py4/2py4_pocket.pdb
REMARK  221 active torsions:
REMARK  status: ('A' for Active; 'I' for Inactive)
REMARK    1  A    between atoms: _1  and  _3
REMARK    2  A    between atoms: _3  and  _4
REMARK    3  A    between atoms: _3  and  _6
REMARK    4  A    between atoms: _6  and  _7
REMARK    5  A    between atoms: _10  and  _12
REMARK    6  A    between atoms: _12  and  _13
REMARK    7  A    between atoms: _12  and  _15
REMARK    8  A    between atoms: _15  and  _16
REMARK    9  A    between atoms: _19  and  _21
REMARK   10  A    between atoms: _21  and  _22
REMARK   11  A    between atoms: _21  and  _24
REMARK   12  A    between atoms: _27  and  _29
REMARK   13  A    between atoms: _29  and  _30
REMARK   14  A    between atoms: _29  and  _32
REMARK   15  A    between atoms: _32  and  _33
REMARK   16  A    between atoms: _36  and  _38
REMARK   17  A    between atoms: _38  and  _39
REMARK   18  A    between atoms: _38  and  _41
REMARK   19  A    between atoms: _44  and  _46
REMARK   20  A    between atoms: _46  and  _47
REMARK   21  A    between atoms: _46  and  _49
REMARK   22  A    between atoms: _52  and  _54
REMARK   23  A    between atoms: _54  and  _55
REMARK   24  A    between atoms: _54  and  _57
REMARK   25  A    between atoms: _60  and  _62
REMARK   26  A    between atoms: _62  and  _63
REMARK   27  A    between atoms: _62  and  _65
REMARK   28  A    between atoms: _68  and  _70
REMARK   29  A    between atoms: _70  and  _71
REMARK   30  A    between atoms: _73  and  _75
REMARK   31  A    between atoms: _75  and  _76
REMARK   32  A    between atoms: _75  and  _78
REMARK   33  A    between atoms: _78  and  _79
REMARK   34  A    between atoms: _82  and  _84
REMARK   35  A    between atoms: _84  and  _85
REMARK   36  A    between atoms: _84  and  _87
REMARK   37  A    between atoms: _90  and  _92
REMARK   38  A    between atoms: _92  and  _93
REMARK   39  A    between atoms: _92  and  _95
REMARK   40  A    between atoms: _95  and  _96
REMARK   41  A    between atoms: _101  and  _103
REMARK   42  A    between atoms: _103  and  _104
REMARK   43  A    between atoms: _103  and  _106
REMARK   44  A    between atoms: _106  and  _107
REMARK   45  A    between atoms: _110  and  _112
REMARK   46  A    between atoms: _112  and  _113
REMARK   47  A    between atoms: _112  and  _115
REMARK   48  A    between atoms: _118  and  _120
REMARK   49  A    between atoms: _120  and  _121
REMARK   50  A    between atoms: _120  and  _123
REMARK   51  A    between atoms: _123  and  _124
REMARK   52  A    between atoms: _129  and  _131
REMARK   53  A    between atoms: _131  and  _132
REMARK   54  A    between atoms: _131  and  _134
REMARK   55  A    between atoms: _134  and  _135
REMARK   56  A    between atoms: _138  and  _139
REMARK   57  A    between atoms: _144  and  _146
REMARK   58  A    between atoms: _146  and  _147
REMARK   59  A    between atoms: _149  and  _151
REMARK   60  A    between atoms: _151  and  _152
REMARK   61  A    between atoms: _151  and  _154
REMARK   62  A    between atoms: _154  and  _155
REMARK   63  A    between atoms: _158  and  _160
REMARK   64  A    between atoms: _160  and  _161
REMARK   65  A    between atoms: _160  and  _163
REMARK   66  A    between atoms: _163  and  _164
REMARK   67  A    between atoms: _167  and  _169
REMARK   68  A    between atoms: _169  and  _170
REMARK   69  A    between atoms: _169  and  _172
REMARK   70  A    between atoms: _172  and  _173
REMARK   71  A    between atoms: _176  and  _178
REMARK   72  A    between atoms: _178  and  _179
REMARK   73  A    between atoms: _182  and  _184
REMARK   74  A    between atoms: _184  and  _185
REMARK   75  A    between atoms: _187  and  _189
REMARK   76  A    between atoms: _189  and  _190
REMARK   77  A    between atoms: _189  and  _192
REMARK   78  A    between atoms: _192  and  _193
REMARK   79  A    between atoms: _198  and  _199
REMARK   80  A    between atoms: _201  and  _203
REMARK   81  A    between atoms: _203  and  _204
REMARK   82  A    between atoms: _203  and  _206
REMARK   83  A    between atoms: _206  and  _207
REMARK   84  A    between atoms: _207  and  _208
REMARK   85  A    between atoms: _208  and  _209
REMARK   86  A    between atoms: _218  and  _220
REMARK   87  A    between atoms: _220  and  _221
REMARK   88  A    between atoms: _223  and  _225
REMARK   89  A    between atoms: _225  and  _226
REMARK   90  A    between atoms: _225  and  _228
REMARK   91  A    between atoms: _228  and  _229
REMARK   92  A    between atoms: _229  and  _230
REMARK   93  A    between atoms: _233  and  _235
REMARK   94  A    between atoms: _235  and  _236
REMARK   95  A    between atoms: _235  and  _238
REMARK   96  A    between atoms: _238  and  _239
REMARK   97  A    between atoms: _242  and  _244
REMARK   98  A    between atoms: _244  and  _245
REMARK   99  A    between atoms: _244  and  _247
REMARK  100  A    between atoms: _247  and  _248
REMARK  101  A    between atoms: _248  and  _249
REMARK  102  A    between atoms: _249  and  _250
REMARK  103  A    between atoms: _250  and  _251
REMARK  104  A    between atoms: _255  and  _257
REMARK  105  A    between atoms: _257  and  _258
REMARK  106  A    between atoms: _257  and  _260
REMARK  107  A    between atoms: _263  and  _265
REMARK  108  A    between atoms: _265  and  _266
REMARK  109  A    between atoms: _269  and  _271
REMARK  110  A    between atoms: _271  and  _272
REMARK  111  A    between atoms: _271  and  _274
REMARK  112  A    between atoms: _274  and  _275
REMARK  113  A    between atoms: _278  and  _280
REMARK  114  A    between atoms: _280  and  _281
REMARK  115  A    between atoms: _280  and  _283
REMARK  116  A    between atoms: _283  and  _284
REMARK  117  A    between atoms: _284  and  _285
REMARK  118  A    between atoms: _285  and  _286
REMARK  119  A    between atoms: _295  and  _297
REMARK  120  A    between atoms: _297  and  _298
REMARK  121  A    between atoms: _301  and  _303
REMARK  122  A    between atoms: _303  and  _304
REMARK  123  A    between atoms: _303  and  _306
REMARK  124  A    between atoms: _306  and  _307
REMARK  125  A    between atoms: _312  and  _314
REMARK  126  A    between atoms: _314  and  _315
REMARK  127  A    between atoms: _314  and  _317
REMARK  128  A    between atoms: _317  and  _318
REMARK  129  A    between atoms: _321  and  _323
REMARK  130  A    between atoms: _323  and  _324
REMARK  131  A    between atoms: _327  and  _329
REMARK  132  A    between atoms: _329  and  _330
REMARK  133  A    between atoms: _332  and  _334
REMARK  134  A    between atoms: _334  and  _335
REMARK  135  A    between atoms: _334  and  _337
REMARK  136  A    between atoms: _337  and  _338
REMARK  137  A    between atoms: _341  and  _343
REMARK  138  A    between atoms: _343  and  _344
REMARK  139  A    between atoms: _343  and  _346
REMARK  140  A    between atoms: _346  and  _347
REMARK  141  A    between atoms: _353  and  _354
REMARK  142  A    between atoms: _359  and  _361
REMARK  143  A    between atoms: _361  and  _362
REMARK  144  A    between atoms: _361  and  _364
REMARK  145  A    between atoms: _364  and  _365
REMARK  146  A    between atoms: _365  and  _366
REMARK  147  A    between atoms: _366  and  _367
REMARK  148  A    between atoms: _376  and  _378
REMARK  149  A    between atoms: _378  and  _379
REMARK  150  A    between atoms: _378  and  _381
REMARK  151  A    between atoms: _381  and  _382
REMARK  152  A    between atoms: _384  and  _386
REMARK  153  A    between atoms: _386  and  _387
REMARK  154  A    between atoms: _389  and  _391
REMARK  155  A    between atoms: _391  and  _392
REMARK  156  A    between atoms: _391  and  _394
REMARK  157  A    between atoms: _394  and  _395
REMARK  158  A    between atoms: _398  and  _400
REMARK  159  A    between atoms: _400  and  _401
REMARK  160  A    between atoms: _404  and  _406
REMARK  161  A    between atoms: _406  and  _407
REMARK  162  A    between atoms: _406  and  _409
REMARK  163  A    between atoms: _409  and  _410
REMARK  164  A    between atoms: _413  and  _415
REMARK  165  A    between atoms: _415  and  _416
REMARK  166  A    between atoms: _415  and  _418
REMARK  167  A    between atoms: _420  and  _422
REMARK  168  A    between atoms: _422  and  _423
REMARK  169  A    between atoms: _422  and  _425
REMARK  170  A    between atoms: _425  and  _426
REMARK  171  A    between atoms: _426  and  _427
REMARK  172  A    between atoms: _427  and  _428
REMARK  173  A    between atoms: _437  and  _439
REMARK  174  A    between atoms: _439  and  _440
REMARK  175  A    between atoms: _443  and  _445
REMARK  176  A    between atoms: _445  and  _446
REMARK  177  A    between atoms: _445  and  _448
REMARK  178  A    between atoms: _448  and  _449
REMARK  179  A    between atoms: _449  and  _450
REMARK  180  A    between atoms: _455  and  _457
REMARK  181  A    between atoms: _457  and  _458
REMARK  182  A    between atoms: _457  and  _460
REMARK  183  A    between atoms: _460  and  _461
REMARK  184  A    between atoms: _464  and  _466
REMARK  185  A    between atoms: _466  and  _467
REMARK  186  A    between atoms: _466  and  _469
REMARK  187  A    between atoms: _469  and  _470
REMARK  188  A    between atoms: _470  and  _471
REMARK  189  A    between atoms: _471  and  _472
REMARK  190  A    between atoms: _481  and  _483
REMARK  191  A    between atoms: _483  and  _484
REMARK  192  A    between atoms: _486  and  _488
REMARK  193  A    between atoms: _488  and  _489
REMARK  194  A    between atoms: _488  and  _491
REMARK  195  A    between atoms: _491  and  _492
REMARK  196  A    between atoms: _495  and  _497
REMARK  197  A    between atoms: _497  and  _498
REMARK  198  A    between atoms: _500  and  _502
REMARK  199  A    between atoms: _502  and  _503
REMARK  200  A    between atoms: _505  and  _507
REMARK  201  A    between atoms: _507  and  _508
REMARK  202  A    between atoms: _507  and  _510
REMARK  203  A    between atoms: _510  and  _511
REMARK  204  A    between atoms: _516  and  _518
REMARK  205  A    between atoms: _518  and  _519
REMARK  206  A    between atoms: _521  and  _523
REMARK  207  A    between atoms: _523  and  _524
REMARK  208  A    between atoms: _523  and  _526
REMARK  209  A    between atoms: _526  and  _527
REMARK  210  A    between atoms: _529  and  _531
REMARK  211  A    between atoms: _531  and  _532
REMARK  212  A    between atoms: _531  and  _534
REMARK  213  A    between atoms: _534  and  _535
REMARK  214  A    between atoms: _537  and  _539
REMARK  215  A    between atoms: _539  and  _540
REMARK  216  A    between atoms: _542  and  _544
REMARK  217  A    between atoms: _544  and  _545
REMARK  218  A    between atoms: _547  and  _549
REMARK  219  A    between atoms: _549  and  _550
REMARK  220  A    between atoms: _549  and  _552
REMARK  221  A    between atoms: _552  and  _553
REMARK                            x       y       z     vdW  Elec       q    Type
REMARK                         _______ _______ _______ _____ _____    ______ ____
ROOT
ATOM      1  O   HOH     1      16.329  12.140  46.243  0.00  0.00    +0.000 OA
ENDROOT
TORSDOF 0
REMARK  Name = ../refined-set-2016/2py4/2py4_pocket.pdb
REMARK  221 active torsions:
REMARK  status: ('A' for Active; 'I' for Inactive)
REMARK    1  A    between atoms: _1  and  _3
REMARK    2  A    between atoms: _3  and  _4
REMARK    3  A    between atoms: _3  and  _6
REMARK    4  A    between atoms: _6  and  _7
REMARK    5  A    between atoms: _10  and  _12
REMARK    6  A    between atoms: _12  and  _13
REMARK    7  A    between atoms: _12  and  _15
REMARK    8  A    between atoms: _15  and  _16
REMARK    9  A    between atoms: _19  and  _21
REMARK   10  A    between atoms: _21  and  _22
REMARK   11  A    between atoms: _21  and  _24
REMARK   12  A    between atoms: _27  and  _29
REMARK   13  A    between atoms: _29  and  _30
REMARK   14  A    between atoms: _29  and  _32
REMARK   15  A    between atoms: _32  and  _33
REMARK   16  A    between atoms: _36  and  _38
REMARK   17  A    between atoms: _38  and  _39
REMARK   18  A    between atoms: _38  and  _41
REMARK   19  A    between atoms: _44  and  _46
REMARK   20  A    between atoms: _46  and  _47
REMARK   21  A    between atoms: _46  and  _49
REMARK   22  A    between atoms: _52  and  _54
REMARK   23  A    between atoms: _54  and  _55
REMARK   24  A    between atoms: _54  and  _57
REMARK   25  A    between atoms: _60  and  _62
REMARK   26  A    between atoms: _62  and  _63
REMARK   27  A    between atoms: _62  and  _65
REMARK   28  A    between atoms: _68  and  _70
REMARK   29  A    between atoms: _70  and  _71
REMARK   30  A    between atoms: _73  and  _75
REMARK   31  A    between atoms: _75  and  _76
REMARK   32  A    between atoms: _75  and  _78
REMARK   33  A    between atoms: _78  and  _79
REMARK   34  A    between atoms: _82  and  _84
REMARK   35  A    between atoms: _84  and  _85
REMARK   36  A    between atoms: _84  and  _87
REMARK   37  A    between atoms: _90  and  _92
REMARK   38  A    between atoms: _92  and  _93
REMARK   39  A    between atoms: _92  and  _95
REMARK   40  A    between atoms: _95  and  _96
REMARK   41  A    between atoms: _101  and  _103
REMARK   42  A    between atoms: _103  and  _104
REMARK   43  A    between atoms: _103  and  _106
REMARK   44  A    between atoms: _106  and  _107
REMARK   45  A    between atoms: _110  and  _112
REMARK   46  A    between atoms: _112  and  _113
REMARK   47  A    between atoms: _112  and  _115
REMARK   48  A    between atoms: _118  and  _120
REMARK   49  A    between atoms: _120  and  _121
REMARK   50  A    between atoms: _120  and  _123
REMARK   51  A    between atoms: _123  and  _124
REMARK   52  A    between atoms: _129  and  _131
REMARK   53  A    between atoms: _131  and  _132
REMARK   54  A    between atoms: _131  and  _134
REMARK   55  A    between atoms: _134  and  _135
REMARK   56  A    between atoms: _138  and  _139
REMARK   57  A    between atoms: _144  and  _146
REMARK   58  A    between atoms: _146  and  _147
REMARK   59  A    between atoms: _149  and  _151
REMARK   60  A    between atoms: _151  and  _152
REMARK   61  A    between atoms: _151  and  _154
REMARK   62  A    between atoms: _154  and  _155
REMARK   63  A    between atoms: _158  and  _160
REMARK   64  A    between atoms: _160  and  _161
REMARK   65  A    between atoms: _160  and  _163
REMARK   66  A    between atoms: _163  and  _164
REMARK   67  A    between atoms: _167  and  _169
REMARK   68  A    between atoms: _169  and  _170
REMARK   69  A    between atoms: _169  and  _172
REMARK   70  A    between atoms: _172  and  _173
REMARK   71  A    between atoms: _176  and  _178
REMARK   72  A    between atoms: _178  and  _179
REMARK   73  A    between atoms: _182  and  _184
REMARK   74  A    between atoms: _184  and  _185
REMARK   75  A    between atoms: _187  and  _189
REMARK   76  A    between atoms: _189  and  _190
REMARK   77  A    between atoms: _189  and  _192
REMARK   78  A    between atoms: _192  and  _193
REMARK   79  A    between atoms: _198  and  _199
REMARK   80  A    between atoms: _201  and  _203
REMARK   81  A    between atoms: _203  and  _204
REMARK   82  A    between atoms: _203  and  _206
REMARK   83  A    between atoms: _206  and  _207
REMARK   84  A    between atoms: _207  and  _208
REMARK   85  A    between atoms: _208  and  _209
REMARK   86  A    between atoms: _218  and  _220
REMARK   87  A    between atoms: _220  and  _221
REMARK   88  A    between atoms: _223  and  _225
REMARK   89  A    between atoms: _225  and  _226
REMARK   90  A    between atoms: _225  and  _228
REMARK   91  A    between atoms: _228  and  _229
REMARK   92  A    between atoms: _229  and  _230
REMARK   93  A    between atoms: _233  and  _235
REMARK   94  A    between atoms: _235  and  _236
REMARK   95  A    between atoms: _235  and  _238
REMARK   96  A    between atoms: _238  and  _239
REMARK   97  A    between atoms: _242  and  _244
REMARK   98  A    between atoms: _244  and  _245
REMARK   99  A    between atoms: _244  and  _247
REMARK  100  A    between atoms: _247  and  _248
REMARK  101  A    between atoms: _248  and  _249
REMARK  102  A    between atoms: _249  and  _250
REMARK  103  A    between atoms: _250  and  _251
REMARK  104  A    between atoms: _255  and  _257
REMARK  105  A    between atoms: _257  and  _258
REMARK  106  A    between atoms: _257  and  _260
REMARK  107  A    between atoms: _263  and  _265
REMARK  108  A    between atoms: _265  and  _266
REMARK  109  A    between atoms: _269  and  _271
REMARK  110  A    between atoms: _271  and  _272
REMARK  111  A    between atoms: _271  and  _274
REMARK  112  A    between atoms: _274  and  _275
REMARK  113  A    between atoms: _278  and  _280
REMARK  114  A    between atoms: _280  and  _281
REMARK  115  A    between atoms: _280  and  _283
REMARK  116  A    between atoms: _283  and  _284
REMARK  117  A    between atoms: _284  and  _285
REMARK  118  A    between atoms: _285  and  _286
REMARK  119  A    between atoms: _295  and  _297
REMARK  120  A    between atoms: _297  and  _298
REMARK  121  A    between atoms: _301  and  _303
REMARK  122  A    between atoms: _303  and  _304
REMARK  123  A    between atoms: _303  and  _306
REMARK  124  A    between atoms: _306  and  _307
REMARK  125  A    between atoms: _312  and  _314
REMARK  126  A    between atoms: _314  and  _315
REMARK  127  A    between atoms: _314  and  _317
REMARK  128  A    between atoms: _317  and  _318
REMARK  129  A    between atoms: _321  and  _323
REMARK  130  A    between atoms: _323  and  _324
REMARK  131  A    between atoms: _327  and  _329
REMARK  132  A    between atoms: _329  and  _330
REMARK  133  A    between atoms: _332  and  _334
REMARK  134  A    between atoms: _334  and  _335
REMARK  135  A    between atoms: _334  and  _337
REMARK  136  A    between atoms: _337  and  _338
REMARK  137  A    between atoms: _341  and  _343
REMARK  138  A    between atoms: _343  and  _344
REMARK  139  A    between atoms: _343  and  _346
REMARK  140  A    between atoms: _346  and  _347
REMARK  141  A    between atoms: _353  and  _354
REMARK  142  A    between atoms: _359  and  _361
REMARK  143  A    between atoms: _361  and  _362
REMARK  144  A    between atoms: _361  and  _364
REMARK  145  A    between atoms: _364  and  _365
REMARK  146  A    between atoms: _365  and  _366
REMARK  147  A    between atoms: _366  and  _367
REMARK  148  A    between atoms: _376  and  _378
REMARK  149  A    between atoms: _378  and  _379
REMARK  150  A    between atoms: _378  and  _381
REMARK  151  A    between atoms: _381  and  _382
REMARK  152  A    between atoms: _384  and  _386
REMARK  153  A    between atoms: _386  and  _387
REMARK  154  A    between atoms: _389  and  _391
REMARK  155  A    between atoms: _391  and  _392
REMARK  156  A    between atoms: _391  and  _394
REMARK  157  A    between atoms: _394  and  _395
REMARK  158  A    between atoms: _398  and  _400
REMARK  159  A    between atoms: _400  and  _401
REMARK  160  A    between atoms: _404  and  _406
REMARK  161  A    between atoms: _406  and  _407
REMARK  162  A    between atoms: _406  and  _409
REMARK  163  A    between atoms: _409  and  _410
REMARK  164  A    between atoms: _413  and  _415
REMARK  165  A    between atoms: _415  and  _416
REMARK  166  A    between atoms: _415  and  _418
REMARK  167  A    between atoms: _420  and  _422
REMARK  168  A    between atoms: _422  and  _423
REMARK  169  A    between atoms: _422  and  _425
REMARK  170  A    between atoms: _425  and  _426
REMARK  171  A    between atoms: _426  and  _427
REMARK  172  A    between atoms: _427  and  _428
REMARK  173  A    between atoms: _437  and  _439
REMARK  174  A    between atoms: _439  and  _440
REMARK  175  A    between atoms: _443  and  _445
REMARK  176  A    between atoms: _445  and  _446
REMARK  177  A    between atoms: _445  and  _448
REMARK  178  A    between atoms: _448  and  _449
REMARK  179  A    between atoms: _449  and  _450
REMARK  180  A    between atoms: _455  and  _457
REMARK  181  A    between atoms: _457  and  _458
REMARK  182  A    between atoms: _457  and  _460
REMARK  183  A    between atoms: _460  and  _461
REMARK  184  A    between atoms: _464  and  _466
REMARK  185  A    between atoms: _466  and  _467
REMARK  186  A    between atoms: _466  and  _469
REMARK  187  A    between atoms: _469  and  _470
REMARK  188  A    between atoms: _470  and  _471
REMARK  189  A    between atoms: _471  and  _472
REMARK  190  A    between atoms: _481  and  _483
REMARK  191  A    between atoms: _483  and  _484
REMARK  192  A    between atoms: _486  and  _488
REMARK  193  A    between atoms: _488  and  _489
REMARK  194  A    between atoms: _488  and  _491
REMARK  195  A    between atoms: _491  and  _492
REMARK  196  A    between atoms: _495  and  _497
REMARK  197  A    between atoms: _497  and  _498
REMARK  198  A    between atoms: _500  and  _502
REMARK  199  A    between atoms: _502  and  _503
REMARK  200  A    between atoms: _505  and  _507
REMARK  201  A    between atoms: _507  and  _508
REMARK  202  A    between atoms: _507  and  _510
REMARK  203  A    between atoms: _510  and  _511
REMARK  204  A    between atoms: _516  and  _518
REMARK  205  A    between atoms: _518  and  _519
REMARK  206  A    between atoms: _521  and  _523
REMARK  207  A    between atoms: _523  and  _524
REMARK  208  A    between atoms: _523  and  _526
REMARK  209  A    between atoms: _526  and  _527
REMARK  210  A    between atoms: _529  and  _531
REMARK  211  A    between atoms: _531  and  _532
REMARK  212  A    between atoms: _531  and  _534
REMARK  213  A    between atoms: _534  and  _535
REMARK  214  A    between atoms: _537  and  _539
REMARK  215  A    between atoms: _539  and  _540
REMARK  216  A    between atoms: _542  and  _544
REMARK  217  A    between atoms: _544  and  _545
REMARK  218  A    between atoms: _547  and  _549
REMARK  219  A    between atoms: _549  and  _550
REMARK  220  A    between atoms: _549  and  _552
REMARK  221  A    between atoms: _552  and  _553
REMARK                            x       y       z     vdW  Elec       q    Type
REMARK                         _______ _______ _______ _____ _____    ______ ____
ROOT
ATOM      1  O   HOH     1      18.483   2.853  35.456  0.00  0.00    +0.000 OA
ENDROOT
TORSDOF 0
REMARK  Name = ../refined-set-2016/2py4/2py4_pocket.pdb
REMARK  221 active torsions:
REMARK  status: ('A' for Active; 'I' for Inactive)
REMARK    1  A    between atoms: _1  and  _3
REMARK    2  A    between atoms: _3  and  _4
REMARK    3  A    between atoms: _3  and  _6
REMARK    4  A    between atoms: _6  and  _7
REMARK    5  A    between atoms: _10  and  _12
REMARK    6  A    between atoms: _12  and  _13
REMARK    7  A    between atoms: _12  and  _15
REMARK    8  A    between atoms: _15  and  _16
REMARK    9  A    between atoms: _19  and  _21
REMARK   10  A    between atoms: _21  and  _22
REMARK   11  A    between atoms: _21  and  _24
REMARK   12  A    between atoms: _27  and  _29
REMARK   13  A    between atoms: _29  and  _30
REMARK   14  A    between atoms: _29  and  _32
REMARK   15  A    between atoms: _32  and  _33
REMARK   16  A    between atoms: _36  and  _38
REMARK   17  A    between atoms: _38  and  _39
REMARK   18  A    between atoms: _38  and  _41
REMARK   19  A    between atoms: _44  and  _46
REMARK   20  A    between atoms: _46  and  _47
REMARK   21  A    between atoms: _46  and  _49
REMARK   22  A    between atoms: _52  and  _54
REMARK   23  A    between atoms: _54  and  _55
REMARK   24  A    between atoms: _54  and  _57
REMARK   25  A    between atoms: _60  and  _62
REMARK   26  A    between atoms: _62  and  _63
REMARK   27  A    between atoms: _62  and  _65
REMARK   28  A    between atoms: _68  and  _70
REMARK   29  A    between atoms: _70  and  _71
REMARK   30  A    between atoms: _73  and  _75
REMARK   31  A    between atoms: _75  and  _76
REMARK   32  A    between atoms: _75  and  _78
REMARK   33  A    between atoms: _78  and  _79
REMARK   34  A    between atoms: _82  and  _84
REMARK   35  A    between atoms: _84  and  _85
REMARK   36  A    between atoms: _84  and  _87
REMARK   37  A    between atoms: _90  and  _92
REMARK   38  A    between atoms: _92  and  _93
REMARK   39  A    between atoms: _92  and  _95
REMARK   40  A    between atoms: _95  and  _96
REMARK   41  A    between atoms: _101  and  _103
REMARK   42  A    between atoms: _103  and  _104
REMARK   43  A    between atoms: _103  and  _106
REMARK   44  A    between atoms: _106  and  _107
REMARK   45  A    between atoms: _110  and  _112
REMARK   46  A    between atoms: _112  and  _113
REMARK   47  A    between atoms: _112  and  _115
REMARK   48  A    between atoms: _118  and  _120
REMARK   49  A    between atoms: _120  and  _121
REMARK   50  A    between atoms: _120  and  _123
REMARK   51  A    between atoms: _123  and  _124
REMARK   52  A    between atoms: _129  and  _131
REMARK   53  A    between atoms: _131  and  _132
REMARK   54  A    between atoms: _131  and  _134
REMARK   55  A    between atoms: _134  and  _135
REMARK   56  A    between atoms: _138  and  _139
REMARK   57  A    between atoms: _144  and  _146
REMARK   58  A    between atoms: _146  and  _147
REMARK   59  A    between atoms: _149  and  _151
REMARK   60  A    between atoms: _151  and  _152
REMARK   61  A    between atoms: _151  and  _154
REMARK   62  A    between atoms: _154  and  _155
REMARK   63  A    between atoms: _158  and  _160
REMARK   64  A    between atoms: _160  and  _161
REMARK   65  A    between atoms: _160  and  _163
REMARK   66  A    between atoms: _163  and  _164
REMARK   67  A    between atoms: _167  and  _169
REMARK   68  A    between atoms: _169  and  _170
REMARK   69  A    between atoms: _169  and  _172
REMARK   70  A    between atoms: _172  and  _173
REMARK   71  A    between atoms: _176  and  _178
REMARK   72  A    between atoms: _178  and  _179
REMARK   73  A    between atoms: _182  and  _184
REMARK   74  A    between atoms: _184  and  _185
REMARK   75  A    between atoms: _187  and  _189
REMARK   76  A    between atoms: _189  and  _190
REMARK   77  A    between atoms: _189  and  _192
REMARK   78  A    between atoms: _192  and  _193
REMARK   79  A    between atoms: _198  and  _199
REMARK   80  A    between atoms: _201  and  _203
REMARK   81  A    between atoms: _203  and  _204
REMARK   82  A    between atoms: _203  and  _206
REMARK   83  A    between atoms: _206  and  _207
REMARK   84  A    between atoms: _207  and  _208
REMARK   85  A    between atoms: _208  and  _209
REMARK   86  A    between atoms: _218  and  _220
REMARK   87  A    between atoms: _220  and  _221
REMARK   88  A    between atoms: _223  and  _225
REMARK   89  A    between atoms: _225  and  _226
REMARK   90  A    between atoms: _225  and  _228
REMARK   91  A    between atoms: _228  and  _229
REMARK   92  A    between atoms: _229  and  _230
REMARK   93  A    between atoms: _233  and  _235
REMARK   94  A    between atoms: _235  and  _236
REMARK   95  A    between atoms: _235  and  _238
REMARK   96  A    between atoms: _238  and  _239
REMARK   97  A    between atoms: _242  and  _244
REMARK   98  A    between atoms: _244  and  _245
REMARK   99  A    between atoms: _244  and  _247
REMARK  100  A    between atoms: _247  and  _248
REMARK  101  A    between atoms: _248  and  _249
REMARK  102  A    between atoms: _249  and  _250
REMARK  103  A    between atoms: _250  and  _251
REMARK  104  A    between atoms: _255  and  _257
REMARK  105  A    between atoms: _257  and  _258
REMARK  106  A    between atoms: _257  and  _260
REMARK  107  A    between atoms: _263  and  _265
REMARK  108  A    between atoms: _265  and  _266
REMARK  109  A    between atoms: _269  and  _271
REMARK  110  A    between atoms: _271  and  _272
REMARK  111  A    between atoms: _271  and  _274
REMARK  112  A    between atoms: _274  and  _275
REMARK  113  A    between atoms: _278  and  _280
REMARK  114  A    between atoms: _280  and  _281
REMARK  115  A    between atoms: _280  and  _283
REMARK  116  A    between atoms: _283  and  _284
REMARK  117  A    between atoms: _284  and  _285
REMARK  118  A    between atoms: _285  and  _286
REMARK  119  A    between atoms: _295  and  _297
REMARK  120  A    between atoms: _297  and  _298
REMARK  121  A    between atoms: _301  and  _303
REMARK  122  A    between atoms: _303  and  _304
REMARK  123  A    between atoms: _303  and  _306
REMARK  124  A    between atoms: _306  and  _307
REMARK  125  A    between atoms: _312  and  _314
REMARK  126  A    between atoms: _314  and  _315
REMARK  127  A    between atoms: _314  and  _317
REMARK  128  A    between atoms: _317  and  _318
REMARK  129  A    between atoms: _321  and  _323
REMARK  130  A    between atoms: _323  and  _324
REMARK  131  A    between atoms: _327  and  _329
REMARK  132  A    between atoms: _329  and  _330
REMARK  133  A    between atoms: _332  and  _334
REMARK  134  A    between atoms: _334  and  _335
REMARK  135  A    between atoms: _334  and  _337
REMARK  136  A    between atoms: _337  and  _338
REMARK  137  A    between atoms: _341  and  _343
REMARK  138  A    between atoms: _343  and  _344
REMARK  139  A    between atoms: _343  and  _346
REMARK  140  A    between atoms: _346  and  _347
REMARK  141  A    between atoms: _353  and  _354
REMARK  142  A    between atoms: _359  and  _361
REMARK  143  A    between atoms: _361  and  _362
REMARK  144  A    between atoms: _361  and  _364
REMARK  145  A    between atoms: _364  and  _365
REMARK  146  A    between atoms: _365  and  _366
REMARK  147  A    between atoms: _366  and  _367
REMARK  148  A    between atoms: _376  and  _378
REMARK  149  A    between atoms: _378  and  _379
REMARK  150  A    between atoms: _378  and  _381
REMARK  151  A    between atoms: _381  and  _382
REMARK  152  A    between atoms: _384  and  _386
REMARK  153  A    between atoms: _386  and  _387
REMARK  154  A    between atoms: _389  and  _391
REMARK  155  A    between atoms: _391  and  _392
REMARK  156  A    between atoms: _391  and  _394
REMARK  157  A    between atoms: _394  and  _395
REMARK  158  A    between atoms: _398  and  _400
REMARK  159  A    between atoms: _400  and  _401
REMARK  160  A    between atoms: _404  and  _406
REMARK  161  A    between atoms: _406  and  _407
REMARK  162  A    between atoms: _406  and  _409
REMARK  163  A    between atoms: _409  and  _410
REMARK  164  A    between atoms: _413  and  _415
REMARK  165  A    between atoms: _415  and  _416
REMARK  166  A    between atoms: _415  and  _418
REMARK  167  A    between atoms: _420  and  _422
REMARK  168  A    between atoms: _422  and  _423
REMARK  169  A    between atoms: _422  and  _425
REMARK  170  A    between atoms: _425  and  _426
REMARK  171  A    between atoms: _426  and  _427
REMARK  172  A    between atoms: _427  and  _428
REMARK  173  A    between atoms: _437  and  _439
REMARK  174  A    between atoms: _439  and  _440
REMARK  175  A    between atoms: _443  and  _445
REMARK  176  A    between atoms: _445  and  _446
REMARK  177  A    between atoms: _445  and  _448
REMARK  178  A    between atoms: _448  and  _449
REMARK  179  A    between atoms: _449  and  _450
REMARK  180  A    between atoms: _455  and  _457
REMARK  181  A    between atoms: _457  and  _458
REMARK  182  A    between atoms: _457  and  _460
REMARK  183  A    between atoms: _460  and  _461
REMARK  184  A    between atoms: _464  and  _466
REMARK  185  A    between atoms: _466  and  _467
REMARK  186  A    between atoms: _466  and  _469
REMARK  187  A    between atoms: _469  and  _470
REMARK  188  A    between atoms: _470  and  _471
REMARK  189  A    between atoms: _471  and  _472
REMARK  190  A    between atoms: _481  and  _483
REMARK  191  A    between atoms: _483  and  _484
REMARK  192  A    between atoms: _486  and  _488
REMARK  193  A    between atoms: _488  and  _489
REMARK  194  A    between atoms: _488  and  _491
REMARK  195  A    between atoms: _491  and  _492
REMARK  196  A    between atoms: _495  and  _497
REMARK  197  A    between atoms: _497  and  _498
REMARK  198  A    between atoms: _500  and  _502
REMARK  199  A    between atoms: _502  and  _503
REMARK  200  A    between atoms: _505  and  _507
REMARK  201  A    between atoms: _507  and  _508
REMARK  202  A    between atoms: _507  and  _510
REMARK  203  A    between atoms: _510  and  _511
REMARK  204  A    between atoms: _516  and  _518
REMARK  205  A    between atoms: _518  and  _519
REMARK  206  A    between atoms: _521  and  _523
REMARK  207  A    between atoms: _523  and  _524
REMARK  208  A    between atoms: _523  and  _526
REMARK  209  A    between atoms: _526  and  _527
REMARK  210  A    between atoms: _529  and  _531
REMARK  211  A    between atoms: _531  and  _532
REMARK  212  A    between atoms: _531  and  _534
REMARK  213  A    between atoms: _534  and  _535
REMARK  214  A    between atoms: _537  and  _539
REMARK  215  A    between atoms: _539  and  _540
REMARK  216  A    between atoms: _542  and  _544
REMARK  217  A    between atoms: _544  and  _545
REMARK  218  A    between atoms: _547  and  _549
REMARK  219  A    between atoms: _549  and  _550
REMARK  220  A    between atoms: _549  and  _552
REMARK  221  A    between atoms: _552  and  _553
REMARK                            x       y       z     vdW  Elec       q    Type
REMARK                         _______ _______ _______ _____ _____    ______ ____
ROOT
ATOM      1  O   HOH     1      17.996  -1.249  36.777  0.00  0.00    +0.000 OA
ENDROOT
TORSDOF 0
REMARK  Name = ../refined-set-2016/2py4/2py4_pocket.pdb
REMARK  221 active torsions:
REMARK  status: ('A' for Active; 'I' for Inactive)
REMARK    1  A    between atoms: _1  and  _3
REMARK    2  A    between atoms: _3  and  _4
REMARK    3  A    between atoms: _3  and  _6
REMARK    4  A    between atoms: _6  and  _7
REMARK    5  A    between atoms: _10  and  _12
REMARK    6  A    between atoms: _12  and  _13
REMARK    7  A    between atoms: _12  and  _15
REMARK    8  A    between atoms: _15  and  _16
REMARK    9  A    between atoms: _19  and  _21
REMARK   10  A    between atoms: _21  and  _22
REMARK   11  A    between atoms: _21  and  _24
REMARK   12  A    between atoms: _27  and  _29
REMARK   13  A    between atoms: _29  and  _30
REMARK   14  A    between atoms: _29  and  _32
REMARK   15  A    between atoms: _32  and  _33
REMARK   16  A    between atoms: _36  and  _38
REMARK   17  A    between atoms: _38  and  _39
REMARK   18  A    between atoms: _38  and  _41
REMARK   19  A    between atoms: _44  and  _46
REMARK   20  A    between atoms: _46  and  _47
REMARK   21  A    between atoms: _46  and  _49
REMARK   22  A    between atoms: _52  and  _54
REMARK   23  A    between atoms: _54  and  _55
REMARK   24  A    between atoms: _54  and  _57
REMARK   25  A    between atoms: _60  and  _62
REMARK   26  A    between atoms: _62  and  _63
REMARK   27  A    between atoms: _62  and  _65
REMARK   28  A    between atoms: _68  and  _70
REMARK   29  A    between atoms: _70  and  _71
REMARK   30  A    between atoms: _73  and  _75
REMARK   31  A    between atoms: _75  and  _76
REMARK   32  A    between atoms: _75  and  _78
REMARK   33  A    between atoms: _78  and  _79
REMARK   34  A    between atoms: _82  and  _84
REMARK   35  A    between atoms: _84  and  _85
REMARK   36  A    between atoms: _84  and  _87
REMARK   37  A    between atoms: _90  and  _92
REMARK   38  A    between atoms: _92  and  _93
REMARK   39  A    between atoms: _92  and  _95
REMARK   40  A    between atoms: _95  and  _96
REMARK   41  A    between atoms: _101  and  _103
REMARK   42  A    between atoms: _103  and  _104
REMARK   43  A    between atoms: _103  and  _106
REMARK   44  A    between atoms: _106  and  _107
REMARK   45  A    between atoms: _110  and  _112
REMARK   46  A    between atoms: _112  and  _113
REMARK   47  A    between atoms: _112  and  _115
REMARK   48  A    between atoms: _118  and  _120
REMARK   49  A    between atoms: _120  and  _121
REMARK   50  A    between atoms: _120  and  _123
REMARK   51  A    between atoms: _123  and  _124
REMARK   52  A    between atoms: _129  and  _131
REMARK   53  A    between atoms: _131  and  _132
REMARK   54  A    between atoms: _131  and  _134
REMARK   55  A    between atoms: _134  and  _135
REMARK   56  A    between atoms: _138  and  _139
REMARK   57  A    between atoms: _144  and  _146
REMARK   58  A    between atoms: _146  and  _147
REMARK   59  A    between atoms: _149  and  _151
REMARK   60  A    between atoms: _151  and  _152
REMARK   61  A    between atoms: _151  and  _154
REMARK   62  A    between atoms: _154  and  _155
REMARK   63  A    between atoms: _158  and  _160
REMARK   64  A    between atoms: _160  and  _161
REMARK   65  A    between atoms: _160  and  _163
REMARK   66  A    between atoms: _163  and  _164
REMARK   67  A    between atoms: _167  and  _169
REMARK   68  A    between atoms: _169  and  _170
REMARK   69  A    between atoms: _169  and  _172
REMARK   70  A    between atoms: _172  and  _173
REMARK   71  A    between atoms: _176  and  _178
REMARK   72  A    between atoms: _178  and  _179
REMARK   73  A    between atoms: _182  and  _184
REMARK   74  A    between atoms: _184  and  _185
REMARK   75  A    between atoms: _187  and  _189
REMARK   76  A    between atoms: _189  and  _190
REMARK   77  A    between atoms: _189  and  _192
REMARK   78  A    between atoms: _192  and  _193
REMARK   79  A    between atoms: _198  and  _199
REMARK   80  A    between atoms: _201  and  _203
REMARK   81  A    between atoms: _203  and  _204
REMARK   82  A    between atoms: _203  and  _206
REMARK   83  A    between atoms: _206  and  _207
REMARK   84  A    between atoms: _207  and  _208
REMARK   85  A    between atoms: _208  and  _209
REMARK   86  A    between atoms: _218  and  _220
REMARK   87  A    between atoms: _220  and  _221
REMARK   88  A    between atoms: _223  and  _225
REMARK   89  A    between atoms: _225  and  _226
REMARK   90  A    between atoms: _225  and  _228
REMARK   91  A    between atoms: _228  and  _229
REMARK   92  A    between atoms: _229  and  _230
REMARK   93  A    between atoms: _233  and  _235
REMARK   94  A    between atoms: _235  and  _236
REMARK   95  A    between atoms: _235  and  _238
REMARK   96  A    between atoms: _238  and  _239
REMARK   97  A    between atoms: _242  and  _244
REMARK   98  A    between atoms: _244  and  _245
REMARK   99  A    between atoms: _244  and  _247
REMARK  100  A    between atoms: _247  and  _248
REMARK  101  A    between atoms: _248  and  _249
REMARK  102  A    between atoms: _249  and  _250
REMARK  103  A    between atoms: _250  and  _251
REMARK  104  A    between atoms: _255  and  _257
REMARK  105  A    between atoms: _257  and  _258
REMARK  106  A    between atoms: _257  and  _260
REMARK  107  A    between atoms: _263  and  _265
REMARK  108  A    between atoms: _265  and  _266
REMARK  109  A    between atoms: _269  and  _271
REMARK  110  A    between atoms: _271  and  _272
REMARK  111  A    between atoms: _271  and  _274
REMARK  112  A    between atoms: _274  and  _275
REMARK  113  A    between atoms: _278  and  _280
REMARK  114  A    between atoms: _280  and  _281
REMARK  115  A    between atoms: _280  and  _283
REMARK  116  A    between atoms: _283  and  _284
REMARK  117  A    between atoms: _284  and  _285
REMARK  118  A    between atoms: _285  and  _286
REMARK  119  A    between atoms: _295  and  _297
REMARK  120  A    between atoms: _297  and  _298
REMARK  121  A    between atoms: _301  and  _303
REMARK  122  A    between atoms: _303  and  _304
REMARK  123  A    between atoms: _303  and  _306
REMARK  124  A    between atoms: _306  and  _307
REMARK  125  A    between atoms: _312  and  _314
REMARK  126  A    between atoms: _314  and  _315
REMARK  127  A    between atoms: _314  and  _317
REMARK  128  A    between atoms: _317  and  _318
REMARK  129  A    between atoms: _321  and  _323
REMARK  130  A    between atoms: _323  and  _324
REMARK  131  A    between atoms: _327  and  _329
REMARK  132  A    between atoms: _329  and  _330
REMARK  133  A    between atoms: _332  and  _334
REMARK  134  A    between atoms: _334  and  _335
REMARK  135  A    between atoms: _334  and  _337
REMARK  136  A    between atoms: _337  and  _338
REMARK  137  A    between atoms: _341  and  _343
REMARK  138  A    between atoms: _343  and  _344
REMARK  139  A    between atoms: _343  and  _346
REMARK  140  A    between atoms: _346  and  _347
REMARK  141  A    between atoms: _353  and  _354
REMARK  142  A    between atoms: _359  and  _361
REMARK  143  A    between atoms: _361  and  _362
REMARK  144  A    between atoms: _361  and  _364
REMARK  145  A    between atoms: _364  and  _365
REMARK  146  A    between atoms: _365  and  _366
REMARK  147  A    between atoms: _366  and  _367
REMARK  148  A    between atoms: _376  and  _378
REMARK  149  A    between atoms: _378  and  _379
REMARK  150  A    between atoms: _378  and  _381
REMARK  151  A    between atoms: _381  and  _382
REMARK  152  A    between atoms: _384  and  _386
REMARK  153  A    between atoms: _386  and  _387
REMARK  154  A    between atoms: _389  and  _391
REMARK  155  A    between atoms: _391  and  _392
REMARK  156  A    between atoms: _391  and  _394
REMARK  157  A    between atoms: _394  and  _395
REMARK  158  A    between atoms: _398  and  _400
REMARK  159  A    between atoms: _400  and  _401
REMARK  160  A    between atoms: _404  and  _406
REMARK  161  A    between atoms: _406  and  _407
REMARK  162  A    between atoms: _406  and  _409
REMARK  163  A    between atoms: _409  and  _410
REMARK  164  A    between atoms: _413  and  _415
REMARK  165  A    between atoms: _415  and  _416
REMARK  166  A    between atoms: _415  and  _418
REMARK  167  A    between atoms: _420  and  _422
REMARK  168  A    between atoms: _422  and  _423
REMARK  169  A    between atoms: _422  and  _425
REMARK  170  A    between atoms: _425  and  _426
REMARK  171  A    between atoms: _426  and  _427
REMARK  172  A    between atoms: _427  and  _428
REMARK  173  A    between atoms: _437  and  _439
REMARK  174  A    between atoms: _439  and  _440
REMARK  175  A    between atoms: _443  and  _445
REMARK  176  A    between atoms: _445  and  _446
REMARK  177  A    between atoms: _445  and  _448
REMARK  178  A    between atoms: _448  and  _449
REMARK  179  A    between atoms: _449  and  _450
REMARK  180  A    between atoms: _455  and  _457
REMARK  181  A    between atoms: _457  and  _458
REMARK  182  A    between atoms: _457  and  _460
REMARK  183  A    between atoms: _460  and  _461
REMARK  184  A    between atoms: _464  and  _466
REMARK  185  A    between atoms: _466  and  _467
REMARK  186  A    between atoms: _466  and  _469
REMARK  187  A    between atoms: _469  and  _470
REMARK  188  A    between atoms: _470  and  _471
REMARK  189  A    between atoms: _471  and  _472
REMARK  190  A    between atoms: _481  and  _483
REMARK  191  A    between atoms: _483  and  _484
REMARK  192  A    between atoms: _486  and  _488
REMARK  193  A    between atoms: _488  and  _489
REMARK  194  A    between atoms: _488  and  _491
REMARK  195  A    between atoms: _491  and  _492
REMARK  196  A    between atoms: _495  and  _497
REMARK  197  A    between atoms: _497  and  _498
REMARK  198  A    between atoms: _500  and  _502
REMARK  199  A    between atoms: _502  and  _503
REMARK  200  A    between atoms: _505  and  _507
REMARK  201  A    between atoms: _507  and  _508
REMARK  202  A    between atoms: _507  and  _510
REMARK  203  A    between atoms: _510  and  _511
REMARK  204  A    between atoms: _516  and  _518
REMARK  205  A    between atoms: _518  and  _519
REMARK  206  A    between atoms: _521  and  _523
REMARK  207  A    between atoms: _523  and  _524
REMARK  208  A    between atoms: _523  and  _526
REMARK  209  A    between atoms: _526  and  _527
REMARK  210  A    between atoms: _529  and  _531
REMARK  211  A    between atoms: _531  and  _532
REMARK  212  A    between atoms: _531  and  _534
REMARK  213  A    between atoms: _534  and  _535
REMARK  214  A    between atoms: _537  and  _539
REMARK  215  A    between atoms: _539  and  _540
REMARK  216  A    between atoms: _542  and  _544
REMARK  217  A    between atoms: _544  and  _545
REMARK  218  A    between atoms: _547  and  _549
REMARK  219  A    between atoms: _549  and  _550
REMARK  220  A    between atoms: _549  and  _552
REMARK  221  A    between atoms: _552  and  _553
REMARK                            x       y       z     vdW  Elec       q    Type
REMARK                         _______ _______ _______ _____ _____    ______ ____
ROOT
ATOM      1  O   HOH     1      18.912   6.333  34.887  0.00  0.00    +0.000 OA
ENDROOT
TORSDOF 0
REMARK  Name = ../refined-set-2016/2py4/2py4_pocket.pdb
REMARK  221 active torsions:
REMARK  status: ('A' for Active; 'I' for Inactive)
REMARK    1  A    between atoms: _1  and  _3
REMARK    2  A    between atoms: _3  and  _4
REMARK    3  A    between atoms: _3  and  _6
REMARK    4  A    between atoms: _6  and  _7
REMARK    5  A    between atoms: _10  and  _12
REMARK    6  A    between atoms: _12  and  _13
REMARK    7  A    between atoms: _12  and  _15
REMARK    8  A    between atoms: _15  and  _16
REMARK    9  A    between atoms: _19  and  _21
REMARK   10  A    between atoms: _21  and  _22
REMARK   11  A    between atoms: _21  and  _24
REMARK   12  A    between atoms: _27  and  _29
REMARK   13  A    between atoms: _29  and  _30
REMARK   14  A    between atoms: _29  and  _32
REMARK   15  A    between atoms: _32  and  _33
REMARK   16  A    between atoms: _36  and  _38
REMARK   17  A    between atoms: _38  and  _39
REMARK   18  A    between atoms: _38  and  _41
REMARK   19  A    between atoms: _44  and  _46
REMARK   20  A    between atoms: _46  and  _47
REMARK   21  A    between atoms: _46  and  _49
REMARK   22  A    between atoms: _52  and  _54
REMARK   23  A    between atoms: _54  and  _55
REMARK   24  A    between atoms: _54  and  _57
REMARK   25  A    between atoms: _60  and  _62
REMARK   26  A    between atoms: _62  and  _63
REMARK   27  A    between atoms: _62  and  _65
REMARK   28  A    between atoms: _68  and  _70
REMARK   29  A    between atoms: _70  and  _71
REMARK   30  A    between atoms: _73  and  _75
REMARK   31  A    between atoms: _75  and  _76
REMARK   32  A    between atoms: _75  and  _78
REMARK   33  A    between atoms: _78  and  _79
REMARK   34  A    between atoms: _82  and  _84
REMARK   35  A    between atoms: _84  and  _85
REMARK   36  A    between atoms: _84  and  _87
REMARK   37  A    between atoms: _90  and  _92
REMARK   38  A    between atoms: _92  and  _93
REMARK   39  A    between atoms: _92  and  _95
REMARK   40  A    between atoms: _95  and  _96
REMARK   41  A    between atoms: _101  and  _103
REMARK   42  A    between atoms: _103  and  _104
REMARK   43  A    between atoms: _103  and  _106
REMARK   44  A    between atoms: _106  and  _107
REMARK   45  A    between atoms: _110  and  _112
REMARK   46  A    between atoms: _112  and  _113
REMARK   47  A    between atoms: _112  and  _115
REMARK   48  A    between atoms: _118  and  _120
REMARK   49  A    between atoms: _120  and  _121
REMARK   50  A    between atoms: _120  and  _123
REMARK   51  A    between atoms: _123  and  _124
REMARK   52  A    between atoms: _129  and  _131
REMARK   53  A    between atoms: _131  and  _132
REMARK   54  A    between atoms: _131  and  _134
REMARK   55  A    between atoms: _134  and  _135
REMARK   56  A    between atoms: _138  and  _139
REMARK   57  A    between atoms: _144  and  _146
REMARK   58  A    between atoms: _146  and  _147
REMARK   59  A    between atoms: _149  and  _151
REMARK   60  A    between atoms: _151  and  _152
REMARK   61  A    between atoms: _151  and  _154
REMARK   62  A    between atoms: _154  and  _155
REMARK   63  A    between atoms: _158  and  _160
REMARK   64  A    between atoms: _160  and  _161
REMARK   65  A    between atoms: _160  and  _163
REMARK   66  A    between atoms: _163  and  _164
REMARK   67  A    between atoms: _167  and  _169
REMARK   68  A    between atoms: _169  and  _170
REMARK   69  A    between atoms: _169  and  _172
REMARK   70  A    between atoms: _172  and  _173
REMARK   71  A    between atoms: _176  and  _178
REMARK   72  A    between atoms: _178  and  _179
REMARK   73  A    between atoms: _182  and  _184
REMARK   74  A    between atoms: _184  and  _185
REMARK   75  A    between atoms: _187  and  _189
REMARK   76  A    between atoms: _189  and  _190
REMARK   77  A    between atoms: _189  and  _192
REMARK   78  A    between atoms: _192  and  _193
REMARK   79  A    between atoms: _198  and  _199
REMARK   80  A    between atoms: _201  and  _203
REMARK   81  A    between atoms: _203  and  _204
REMARK   82  A    between atoms: _203  and  _206
REMARK   83  A    between atoms: _206  and  _207
REMARK   84  A    between atoms: _207  and  _208
REMARK   85  A    between atoms: _208  and  _209
REMARK   86  A    between atoms: _218  and  _220
REMARK   87  A    between atoms: _220  and  _221
REMARK   88  A    between atoms: _223  and  _225
REMARK   89  A    between atoms: _225  and  _226
REMARK   90  A    between atoms: _225  and  _228
REMARK   91  A    between atoms: _228  and  _229
REMARK   92  A    between atoms: _229  and  _230
REMARK   93  A    between atoms: _233  and  _235
REMARK   94  A    between atoms: _235  and  _236
REMARK   95  A    between atoms: _235  and  _238
REMARK   96  A    between atoms: _238  and  _239
REMARK   97  A    between atoms: _242  and  _244
REMARK   98  A    between atoms: _244  and  _245
REMARK   99  A    between atoms: _244  and  _247
REMARK  100  A    between atoms: _247  and  _248
REMARK  101  A    between atoms: _248  and  _249
REMARK  102  A    between atoms: _249  and  _250
REMARK  103  A    between atoms: _250  and  _251
REMARK  104  A    between atoms: _255  and  _257
REMARK  105  A    between atoms: _257  and  _258
REMARK  106  A    between atoms: _257  and  _260
REMARK  107  A    between atoms: _263  and  _265
REMARK  108  A    between atoms: _265  and  _266
REMARK  109  A    between atoms: _269  and  _271
REMARK  110  A    between atoms: _271  and  _272
REMARK  111  A    between atoms: _271  and  _274
REMARK  112  A    between atoms: _274  and  _275
REMARK  113  A    between atoms: _278  and  _280
REMARK  114  A    between atoms: _280  and  _281
REMARK  115  A    between atoms: _280  and  _283
REMARK  116  A    between atoms: _283  and  _284
REMARK  117  A    between atoms: _284  and  _285
REMARK  118  A    between atoms: _285  and  _286
REMARK  119  A    between atoms: _295  and  _297
REMARK  120  A    between atoms: _297  and  _298
REMARK  121  A    between atoms: _301  and  _303
REMARK  122  A    between atoms: _303  and  _304
REMARK  123  A    between atoms: _303  and  _306
REMARK  124  A    between atoms: _306  and  _307
REMARK  125  A    between atoms: _312  and  _314
REMARK  126  A    between atoms: _314  and  _315
REMARK  127  A    between atoms: _314  and  _317
REMARK  128  A    between atoms: _317  and  _318
REMARK  129  A    between atoms: _321  and  _323
REMARK  130  A    between atoms: _323  and  _324
REMARK  131  A    between atoms: _327  and  _329
REMARK  132  A    between atoms: _329  and  _330
REMARK  133  A    between atoms: _332  and  _334
REMARK  134  A    between atoms: _334  and  _335
REMARK  135  A    between atoms: _334  and  _337
REMARK  136  A    between atoms: _337  and  _338
REMARK  137  A    between atoms: _341  and  _343
REMARK  138  A    between atoms: _343  and  _344
REMARK  139  A    between atoms: _343  and  _346
REMARK  140  A    between atoms: _346  and  _347
REMARK  141  A    between atoms: _353  and  _354
REMARK  142  A    between atoms: _359  and  _361
REMARK  143  A    between atoms: _361  and  _362
REMARK  144  A    between atoms: _361  and  _364
REMARK  145  A    between atoms: _364  and  _365
REMARK  146  A    between atoms: _365  and  _366
REMARK  147  A    between atoms: _366  and  _367
REMARK  148  A    between atoms: _376  and  _378
REMARK  149  A    between atoms: _378  and  _379
REMARK  150  A    between atoms: _378  and  _381
REMARK  151  A    between atoms: _381  and  _382
REMARK  152  A    between atoms: _384  and  _386
REMARK  153  A    between atoms: _386  and  _387
REMARK  154  A    between atoms: _389  and  _391
REMARK  155  A    between atoms: _391  and  _392
REMARK  156  A    between atoms: _391  and  _394
REMARK  157  A    between atoms: _394  and  _395
REMARK  158  A    between atoms: _398  and  _400
REMARK  159  A    between atoms: _400  and  _401
REMARK  160  A    between atoms: _404  and  _406
REMARK  161  A    between atoms: _406  and  _407
REMARK  162  A    between atoms: _406  and  _409
REMARK  163  A    between atoms: _409  and  _410
REMARK  164  A    between atoms: _413  and  _415
REMARK  165  A    between atoms: _415  and  _416
REMARK  166  A    between atoms: _415  and  _418
REMARK  167  A    between atoms: _420  and  _422
REMARK  168  A    between atoms: _422  and  _423
REMARK  169  A    between atoms: _422  and  _425
REMARK  170  A    between atoms: _425  and  _426
REMARK  171  A    between atoms: _426  and  _427
REMARK  172  A    between atoms: _427  and  _428
REMARK  173  A    between atoms: _437  and  _439
REMARK  174  A    between atoms: _439  and  _440
REMARK  175  A    between atoms: _443  and  _445
REMARK  176  A    between atoms: _445  and  _446
REMARK  177  A    between atoms: _445  and  _448
REMARK  178  A    between atoms: _448  and  _449
REMARK  179  A    between atoms: _449  and  _450
REMARK  180  A    between atoms: _455  and  _457
REMARK  181  A    between atoms: _457  and  _458
REMARK  182  A    between atoms: _457  and  _460
REMARK  183  A    between atoms: _460  and  _461
REMARK  184  A    between atoms: _464  and  _466
REMARK  185  A    between atoms: _466  and  _467
REMARK  186  A    between atoms: _466  and  _469
REMARK  187  A    between atoms: _469  and  _470
REMARK  188  A    between atoms: _470  and  _471
REMARK  189  A    between atoms: _471  and  _472
REMARK  190  A    between atoms: _481  and  _483
REMARK  191  A    between atoms: _483  and  _484
REMARK  192  A    between atoms: _486  and  _488
REMARK  193  A    between atoms: _488  and  _489
REMARK  194  A    between atoms: _488  and  _491
REMARK  195  A    between atoms: _491  and  _492
REMARK  196  A    between atoms: _495  and  _497
REMARK  197  A    between atoms: _497  and  _498
REMARK  198  A    between atoms: _500  and  _502
REMARK  199  A    between atoms: _502  and  _503
REMARK  200  A    between atoms: _505  and  _507
REMARK  201  A    between atoms: _507  and  _508
REMARK  202  A    between atoms: _507  and  _510
REMARK  203  A    between atoms: _510  and  _511
REMARK  204  A    between atoms: _516  and  _518
REMARK  205  A    between atoms: _518  and  _519
REMARK  206  A    between atoms: _521  and  _523
REMARK  207  A    between atoms: _523  and  _524
REMARK  208  A    between atoms: _523  and  _526
REMARK  209  A    between atoms: _526  and  _527
REMARK  210  A    between atoms: _529  and  _531
REMARK  211  A    between atoms: _531  and  _532
REMARK  212  A    between atoms: _531  and  _534
REMARK  213  A    between atoms: _534  and  _535
REMARK  214  A    between atoms: _537  and  _539
REMARK  215  A    between atoms: _539  and  _540
REMARK  216  A    between atoms: _542  and  _544
REMARK  217  A    between atoms: _544  and  _545
REMARK  218  A    between atoms: _547  and  _549
REMARK  219  A    between atoms: _549  and  _550
REMARK  220  A    between atoms: _549  and  _552
REMARK  221  A    between atoms: _552  and  _553
REMARK                            x       y       z     vdW  Elec       q    Type
REMARK                         _______ _______ _______ _____ _____    ______ ____
ROOT
ATOM      1  O   HOH     1      15.375  13.619  44.151  0.00  0.00    +0.000 OA
ENDROOT
TORSDOF 0
REMARK  Name = ../refined-set-2016/2py4/2py4_pocket.pdb
REMARK  221 active torsions:
REMARK  status: ('A' for Active; 'I' for Inactive)
REMARK    1  A    between atoms: _1  and  _3
REMARK    2  A    between atoms: _3  and  _4
REMARK    3  A    between atoms: _3  and  _6
REMARK    4  A    between atoms: _6  and  _7
REMARK    5  A    between atoms: _10  and  _12
REMARK    6  A    between atoms: _12  and  _13
REMARK    7  A    between atoms: _12  and  _15
REMARK    8  A    between atoms: _15  and  _16
REMARK    9  A    between atoms: _19  and  _21
REMARK   10  A    between atoms: _21  and  _22
REMARK   11  A    between atoms: _21  and  _24
REMARK   12  A    between atoms: _27  and  _29
REMARK   13  A    between atoms: _29  and  _30
REMARK   14  A    between atoms: _29  and  _32
REMARK   15  A    between atoms: _32  and  _33
REMARK   16  A    between atoms: _36  and  _38
REMARK   17  A    between atoms: _38  and  _39
REMARK   18  A    between atoms: _38  and  _41
REMARK   19  A    between atoms: _44  and  _46
REMARK   20  A    between atoms: _46  and  _47
REMARK   21  A    between atoms: _46  and  _49
REMARK   22  A    between atoms: _52  and  _54
REMARK   23  A    between atoms: _54  and  _55
REMARK   24  A    between atoms: _54  and  _57
REMARK   25  A    between atoms: _60  and  _62
REMARK   26  A    between atoms: _62  and  _63
REMARK   27  A    between atoms: _62  and  _65
REMARK   28  A    between atoms: _68  and  _70
REMARK   29  A    between atoms: _70  and  _71
REMARK   30  A    between atoms: _73  and  _75
REMARK   31  A    between atoms: _75  and  _76
REMARK   32  A    between atoms: _75  and  _78
REMARK   33  A    between atoms: _78  and  _79
REMARK   34  A    between atoms: _82  and  _84
REMARK   35  A    between atoms: _84  and  _85
REMARK   36  A    between atoms: _84  and  _87
REMARK   37  A    between atoms: _90  and  _92
REMARK   38  A    between atoms: _92  and  _93
REMARK   39  A    between atoms: _92  and  _95
REMARK   40  A    between atoms: _95  and  _96
REMARK   41  A    between atoms: _101  and  _103
REMARK   42  A    between atoms: _103  and  _104
REMARK   43  A    between atoms: _103  and  _106
REMARK   44  A    between atoms: _106  and  _107
REMARK   45  A    between atoms: _110  and  _112
REMARK   46  A    between atoms: _112  and  _113
REMARK   47  A    between atoms: _112  and  _115
REMARK   48  A    between atoms: _118  and  _120
REMARK   49  A    between atoms: _120  and  _121
REMARK   50  A    between atoms: _120  and  _123
REMARK   51  A    between atoms: _123  and  _124
REMARK   52  A    between atoms: _129  and  _131
REMARK   53  A    between atoms: _131  and  _132
REMARK   54  A    between atoms: _131  and  _134
REMARK   55  A    between atoms: _134  and  _135
REMARK   56  A    between atoms: _138  and  _139
REMARK   57  A    between atoms: _144  and  _146
REMARK   58  A    between atoms: _146  and  _147
REMARK   59  A    between atoms: _149  and  _151
REMARK   60  A    between atoms: _151  and  _152
REMARK   61  A    between atoms: _151  and  _154
REMARK   62  A    between atoms: _154  and  _155
REMARK   63  A    between atoms: _158  and  _160
REMARK   64  A    between atoms: _160  and  _161
REMARK   65  A    between atoms: _160  and  _163
REMARK   66  A    between atoms: _163  and  _164
REMARK   67  A    between atoms: _167  and  _169
REMARK   68  A    between atoms: _169  and  _170
REMARK   69  A    between atoms: _169  and  _172
REMARK   70  A    between atoms: _172  and  _173
REMARK   71  A    between atoms: _176  and  _178
REMARK   72  A    between atoms: _178  and  _179
REMARK   73  A    between atoms: _182  and  _184
REMARK   74  A    between atoms: _184  and  _185
REMARK   75  A    between atoms: _187  and  _189
REMARK   76  A    between atoms: _189  and  _190
REMARK   77  A    between atoms: _189  and  _192
REMARK   78  A    between atoms: _192  and  _193
REMARK   79  A    between atoms: _198  and  _199
REMARK   80  A    between atoms: _201  and  _203
REMARK   81  A    between atoms: _203  and  _204
REMARK   82  A    between atoms: _203  and  _206
REMARK   83  A    between atoms: _206  and  _207
REMARK   84  A    between atoms: _207  and  _208
REMARK   85  A    between atoms: _208  and  _209
REMARK   86  A    between atoms: _218  and  _220
REMARK   87  A    between atoms: _220  and  _221
REMARK   88  A    between atoms: _223  and  _225
REMARK   89  A    between atoms: _225  and  _226
REMARK   90  A    between atoms: _225  and  _228
REMARK   91  A    between atoms: _228  and  _229
REMARK   92  A    between atoms: _229  and  _230
REMARK   93  A    between atoms: _233  and  _235
REMARK   94  A    between atoms: _235  and  _236
REMARK   95  A    between atoms: _235  and  _238
REMARK   96  A    between atoms: _238  and  _239
REMARK   97  A    between atoms: _242  and  _244
REMARK   98  A    between atoms: _244  and  _245
REMARK   99  A    between atoms: _244  and  _247
REMARK  100  A    between atoms: _247  and  _248
REMARK  101  A    between atoms: _248  and  _249
REMARK  102  A    between atoms: _249  and  _250
REMARK  103  A    between atoms: _250  and  _251
REMARK  104  A    between atoms: _255  and  _257
REMARK  105  A    between atoms: _257  and  _258
REMARK  106  A    between atoms: _257  and  _260
REMARK  107  A    between atoms: _263  and  _265
REMARK  108  A    between atoms: _265  and  _266
REMARK  109  A    between atoms: _269  and  _271
REMARK  110  A    between atoms: _271  and  _272
REMARK  111  A    between atoms: _271  and  _274
REMARK  112  A    between atoms: _274  and  _275
REMARK  113  A    between atoms: _278  and  _280
REMARK  114  A    between atoms: _280  and  _281
REMARK  115  A    between atoms: _280  and  _283
REMARK  116  A    between atoms: _283  and  _284
REMARK  117  A    between atoms: _284  and  _285
REMARK  118  A    between atoms: _285  and  _286
REMARK  119  A    between atoms: _295  and  _297
REMARK  120  A    between atoms: _297  and  _298
REMARK  121  A    between atoms: _301  and  _303
REMARK  122  A    between atoms: _303  and  _304
REMARK  123  A    between atoms: _303  and  _306
REMARK  124  A    between atoms: _306  and  _307
REMARK  125  A    between atoms: _312  and  _314
REMARK  126  A    between atoms: _314  and  _315
REMARK  127  A    between atoms: _314  and  _317
REMARK  128  A    between atoms: _317  and  _318
REMARK  129  A    between atoms: _321  and  _323
REMARK  130  A    between atoms: _323  and  _324
REMARK  131  A    between atoms: _327  and  _329
REMARK  132  A    between atoms: _329  and  _330
REMARK  133  A    between atoms: _332  and  _334
REMARK  134  A    between atoms: _334  and  _335
REMARK  135  A    between atoms: _334  and  _337
REMARK  136  A    between atoms: _337  and  _338
REMARK  137  A    between atoms: _341  and  _343
REMARK  138  A    between atoms: _343  and  _344
REMARK  139  A    between atoms: _343  and  _346
REMARK  140  A    between atoms: _346  and  _347
REMARK  141  A    between atoms: _353  and  _354
REMARK  142  A    between atoms: _359  and  _361
REMARK  143  A    between atoms: _361  and  _362
REMARK  144  A    between atoms: _361  and  _364
REMARK  145  A    between atoms: _364  and  _365
REMARK  146  A    between atoms: _365  and  _366
REMARK  147  A    between atoms: _366  and  _367
REMARK  148  A    between atoms: _376  and  _378
REMARK  149  A    between atoms: _378  and  _379
REMARK  150  A    between atoms: _378  and  _381
REMARK  151  A    between atoms: _381  and  _382
REMARK  152  A    between atoms: _384  and  _386
REMARK  153  A    between atoms: _386  and  _387
REMARK  154  A    between atoms: _389  and  _391
REMARK  155  A    between atoms: _391  and  _392
REMARK  156  A    between atoms: _391  and  _394
REMARK  157  A    between atoms: _394  and  _395
REMARK  158  A    between atoms: _398  and  _400
REMARK  159  A    between atoms: _400  and  _401
REMARK  160  A    between atoms: _404  and  _406
REMARK  161  A    between atoms: _406  and  _407
REMARK  162  A    between atoms: _406  and  _409
REMARK  163  A    between atoms: _409  and  _410
REMARK  164  A    between atoms: _413  and  _415
REMARK  165  A    between atoms: _415  and  _416
REMARK  166  A    between atoms: _415  and  _418
REMARK  167  A    between atoms: _420  and  _422
REMARK  168  A    between atoms: _422  and  _423
REMARK  169  A    between atoms: _422  and  _425
REMARK  170  A    between atoms: _425  and  _426
REMARK  171  A    between atoms: _426  and  _427
REMARK  172  A    between atoms: _427  and  _428
REMARK  173  A    between atoms: _437  and  _439
REMARK  174  A    between atoms: _439  and  _440
REMARK  175  A    between atoms: _443  and  _445
REMARK  176  A    between atoms: _445  and  _446
REMARK  177  A    between atoms: _445  and  _448
REMARK  178  A    between atoms: _448  and  _449
REMARK  179  A    between atoms: _449  and  _450
REMARK  180  A    between atoms: _455  and  _457
REMARK  181  A    between atoms: _457  and  _458
REMARK  182  A    between atoms: _457  and  _460
REMARK  183  A    between atoms: _460  and  _461
REMARK  184  A    between atoms: _464  and  _466
REMARK  185  A    between atoms: _466  and  _467
REMARK  186  A    between atoms: _466  and  _469
REMARK  187  A    between atoms: _469  and  _470
REMARK  188  A    between atoms: _470  and  _471
REMARK  189  A    between atoms: _471  and  _472
REMARK  190  A    between atoms: _481  and  _483
REMARK  191  A    between atoms: _483  and  _484
REMARK  192  A    between atoms: _486  and  _488
REMARK  193  A    between atoms: _488  and  _489
REMARK  194  A    between atoms: _488  and  _491
REMARK  195  A    between atoms: _491  and  _492
REMARK  196  A    between atoms: _495  and  _497
REMARK  197  A    between atoms: _497  and  _498
REMARK  198  A    between atoms: _500  and  _502
REMARK  199  A    between atoms: _502  and  _503
REMARK  200  A    between atoms: _505  and  _507
REMARK  201  A    between atoms: _507  and  _508
REMARK  202  A    between atoms: _507  and  _510
REMARK  203  A    between atoms: _510  and  _511
REMARK  204  A    between atoms: _516  and  _518
REMARK  205  A    between atoms: _518  and  _519
REMARK  206  A    between atoms: _521  and  _523
REMARK  207  A    between atoms: _523  and  _524
REMARK  208  A    between atoms: _523  and  _526
REMARK  209  A    between atoms: _526  and  _527
REMARK  210  A    between atoms: _529  and  _531
REMARK  211  A    between atoms: _531  and  _532
REMARK  212  A    between atoms: _531  and  _534
REMARK  213  A    between atoms: _534  and  _535
REMARK  214  A    between atoms: _537  and  _539
REMARK  215  A    between atoms: _539  and  _540
REMARK  216  A    between atoms: _542  and  _544
REMARK  217  A    between atoms: _544  and  _545
REMARK  218  A    between atoms: _547  and  _549
REMARK  219  A    between atoms: _549  and  _550
REMARK  220  A    between atoms: _549  and  _552
REMARK  221  A    between atoms: _552  and  _553
REMARK                            x       y       z     vdW  Elec       q    Type
REMARK                         _______ _______ _______ _____ _____    ______ ____
ROOT
ATOM      1  O   HOH     1       9.020  10.694  41.686  0.00  0.00    +0.000 OA
ENDROOT
TORSDOF 0
REMARK  Name = ../refined-set-2016/2py4/2py4_pocket.pdb
REMARK  221 active torsions:
REMARK  status: ('A' for Active; 'I' for Inactive)
REMARK    1  A    between atoms: _1  and  _3
REMARK    2  A    between atoms: _3  and  _4
REMARK    3  A    between atoms: _3  and  _6
REMARK    4  A    between atoms: _6  and  _7
REMARK    5  A    between atoms: _10  and  _12
REMARK    6  A    between atoms: _12  and  _13
REMARK    7  A    between atoms: _12  and  _15
REMARK    8  A    between atoms: _15  and  _16
REMARK    9  A    between atoms: _19  and  _21
REMARK   10  A    between atoms: _21  and  _22
REMARK   11  A    between atoms: _21  and  _24
REMARK   12  A    between atoms: _27  and  _29
REMARK   13  A    between atoms: _29  and  _30
REMARK   14  A    between atoms: _29  and  _32
REMARK   15  A    between atoms: _32  and  _33
REMARK   16  A    between atoms: _36  and  _38
REMARK   17  A    between atoms: _38  and  _39
REMARK   18  A    between atoms: _38  and  _41
REMARK   19  A    between atoms: _44  and  _46
REMARK   20  A    between atoms: _46  and  _47
REMARK   21  A    between atoms: _46  and  _49
REMARK   22  A    between atoms: _52  and  _54
REMARK   23  A    between atoms: _54  and  _55
REMARK   24  A    between atoms: _54  and  _57
REMARK   25  A    between atoms: _60  and  _62
REMARK   26  A    between atoms: _62  and  _63
REMARK   27  A    between atoms: _62  and  _65
REMARK   28  A    between atoms: _68  and  _70
REMARK   29  A    between atoms: _70  and  _71
REMARK   30  A    between atoms: _73  and  _75
REMARK   31  A    between atoms: _75  and  _76
REMARK   32  A    between atoms: _75  and  _78
REMARK   33  A    between atoms: _78  and  _79
REMARK   34  A    between atoms: _82  and  _84
REMARK   35  A    between atoms: _84  and  _85
REMARK   36  A    between atoms: _84  and  _87
REMARK   37  A    between atoms: _90  and  _92
REMARK   38  A    between atoms: _92  and  _93
REMARK   39  A    between atoms: _92  and  _95
REMARK   40  A    between atoms: _95  and  _96
REMARK   41  A    between atoms: _101  and  _103
REMARK   42  A    between atoms: _103  and  _104
REMARK   43  A    between atoms: _103  and  _106
REMARK   44  A    between atoms: _106  and  _107
REMARK   45  A    between atoms: _110  and  _112
REMARK   46  A    between atoms: _112  and  _113
REMARK   47  A    between atoms: _112  and  _115
REMARK   48  A    between atoms: _118  and  _120
REMARK   49  A    between atoms: _120  and  _121
REMARK   50  A    between atoms: _120  and  _123
REMARK   51  A    between atoms: _123  and  _124
REMARK   52  A    between atoms: _129  and  _131
REMARK   53  A    between atoms: _131  and  _132
REMARK   54  A    between atoms: _131  and  _134
REMARK   55  A    between atoms: _134  and  _135
REMARK   56  A    between atoms: _138  and  _139
REMARK   57  A    between atoms: _144  and  _146
REMARK   58  A    between atoms: _146  and  _147
REMARK   59  A    between atoms: _149  and  _151
REMARK   60  A    between atoms: _151  and  _152
REMARK   61  A    between atoms: _151  and  _154
REMARK   62  A    between atoms: _154  and  _155
REMARK   63  A    between atoms: _158  and  _160
REMARK   64  A    between atoms: _160  and  _161
REMARK   65  A    between atoms: _160  and  _163
REMARK   66  A    between atoms: _163  and  _164
REMARK   67  A    between atoms: _167  and  _169
REMARK   68  A    between atoms: _169  and  _170
REMARK   69  A    between atoms: _169  and  _172
REMARK   70  A    between atoms: _172  and  _173
REMARK   71  A    between atoms: _176  and  _178
REMARK   72  A    between atoms: _178  and  _179
REMARK   73  A    between atoms: _182  and  _184
REMARK   74  A    between atoms: _184  and  _185
REMARK   75  A    between atoms: _187  and  _189
REMARK   76  A    between atoms: _189  and  _190
REMARK   77  A    between atoms: _189  and  _192
REMARK   78  A    between atoms: _192  and  _193
REMARK   79  A    between atoms: _198  and  _199
REMARK   80  A    between atoms: _201  and  _203
REMARK   81  A    between atoms: _203  and  _204
REMARK   82  A    between atoms: _203  and  _206
REMARK   83  A    between atoms: _206  and  _207
REMARK   84  A    between atoms: _207  and  _208
REMARK   85  A    between atoms: _208  and  _209
REMARK   86  A    between atoms: _218  and  _220
REMARK   87  A    between atoms: _220  and  _221
REMARK   88  A    between atoms: _223  and  _225
REMARK   89  A    between atoms: _225  and  _226
REMARK   90  A    between atoms: _225  and  _228
REMARK   91  A    between atoms: _228  and  _229
REMARK   92  A    between atoms: _229  and  _230
REMARK   93  A    between atoms: _233  and  _235
REMARK   94  A    between atoms: _235  and  _236
REMARK   95  A    between atoms: _235  and  _238
REMARK   96  A    between atoms: _238  and  _239
REMARK   97  A    between atoms: _242  and  _244
REMARK   98  A    between atoms: _244  and  _245
REMARK   99  A    between atoms: _244  and  _247
REMARK  100  A    between atoms: _247  and  _248
REMARK  101  A    between atoms: _248  and  _249
REMARK  102  A    between atoms: _249  and  _250
REMARK  103  A    between atoms: _250  and  _251
REMARK  104  A    between atoms: _255  and  _257
REMARK  105  A    between atoms: _257  and  _258
REMARK  106  A    between atoms: _257  and  _260
REMARK  107  A    between atoms: _263  and  _265
REMARK  108  A    between atoms: _265  and  _266
REMARK  109  A    between atoms: _269  and  _271
REMARK  110  A    between atoms: _271  and  _272
REMARK  111  A    between atoms: _271  and  _274
REMARK  112  A    between atoms: _274  and  _275
REMARK  113  A    between atoms: _278  and  _280
REMARK  114  A    between atoms: _280  and  _281
REMARK  115  A    between atoms: _280  and  _283
REMARK  116  A    between atoms: _283  and  _284
REMARK  117  A    between atoms: _284  and  _285
REMARK  118  A    between atoms: _285  and  _286
REMARK  119  A    between atoms: _295  and  _297
REMARK  120  A    between atoms: _297  and  _298
REMARK  121  A    between atoms: _301  and  _303
REMARK  122  A    between atoms: _303  and  _304
REMARK  123  A    between atoms: _303  and  _306
REMARK  124  A    between atoms: _306  and  _307
REMARK  125  A    between atoms: _312  and  _314
REMARK  126  A    between atoms: _314  and  _315
REMARK  127  A    between atoms: _314  and  _317
REMARK  128  A    between atoms: _317  and  _318
REMARK  129  A    between atoms: _321  and  _323
REMARK  130  A    between atoms: _323  and  _324
REMARK  131  A    between atoms: _327  and  _329
REMARK  132  A    between atoms: _329  and  _330
REMARK  133  A    between atoms: _332  and  _334
REMARK  134  A    between atoms: _334  and  _335
REMARK  135  A    between atoms: _334  and  _337
REMARK  136  A    between atoms: _337  and  _338
REMARK  137  A    between atoms: _341  and  _343
REMARK  138  A    between atoms: _343  and  _344
REMARK  139  A    between atoms: _343  and  _346
REMARK  140  A    between atoms: _346  and  _347
REMARK  141  A    between atoms: _353  and  _354
REMARK  142  A    between atoms: _359  and  _361
REMARK  143  A    between atoms: _361  and  _362
REMARK  144  A    between atoms: _361  and  _364
REMARK  145  A    between atoms: _364  and  _365
REMARK  146  A    between atoms: _365  and  _366
REMARK  147  A    between atoms: _366  and  _367
REMARK  148  A    between atoms: _376  and  _378
REMARK  149  A    between atoms: _378  and  _379
REMARK  150  A    between atoms: _378  and  _381
REMARK  151  A    between atoms: _381  and  _382
REMARK  152  A    between atoms: _384  and  _386
REMARK  153  A    between atoms: _386  and  _387
REMARK  154  A    between atoms: _389  and  _391
REMARK  155  A    between atoms: _391  and  _392
REMARK  156  A    between atoms: _391  and  _394
REMARK  157  A    between atoms: _394  and  _395
REMARK  158  A    between atoms: _398  and  _400
REMARK  159  A    between atoms: _400  and  _401
REMARK  160  A    between atoms: _404  and  _406
REMARK  161  A    between atoms: _406  and  _407
REMARK  162  A    between atoms: _406  and  _409
REMARK  163  A    between atoms: _409  and  _410
REMARK  164  A    between atoms: _413  and  _415
REMARK  165  A    between atoms: _415  and  _416
REMARK  166  A    between atoms: _415  and  _418
REMARK  167  A    between atoms: _420  and  _422
REMARK  168  A    between atoms: _422  and  _423
REMARK  169  A    between atoms: _422  and  _425
REMARK  170  A    between atoms: _425  and  _426
REMARK  171  A    between atoms: _426  and  _427
REMARK  172  A    between atoms: _427  and  _428
REMARK  173  A    between atoms: _437  and  _439
REMARK  174  A    between atoms: _439  and  _440
REMARK  175  A    between atoms: _443  and  _445
REMARK  176  A    between atoms: _445  and  _446
REMARK  177  A    between atoms: _445  and  _448
REMARK  178  A    between atoms: _448  and  _449
REMARK  179  A    between atoms: _449  and  _450
REMARK  180  A    between atoms: _455  and  _457
REMARK  181  A    between atoms: _457  and  _458
REMARK  182  A    between atoms: _457  and  _460
REMARK  183  A    between atoms: _460  and  _461
REMARK  184  A    between atoms: _464  and  _466
REMARK  185  A    between atoms: _466  and  _467
REMARK  186  A    between atoms: _466  and  _469
REMARK  187  A    between atoms: _469  and  _470
REMARK  188  A    between atoms: _470  and  _471
REMARK  189  A    between atoms: _471  and  _472
REMARK  190  A    between atoms: _481  and  _483
REMARK  191  A    between atoms: _483  and  _484
REMARK  192  A    between atoms: _486  and  _488
REMARK  193  A    between atoms: _488  and  _489
REMARK  194  A    between atoms: _488  and  _491
REMARK  195  A    between atoms: _491  and  _492
REMARK  196  A    between atoms: _495  and  _497
REMARK  197  A    between atoms: _497  and  _498
REMARK  198  A    between atoms: _500  and  _502
REMARK  199  A    between atoms: _502  and  _503
REMARK  200  A    between atoms: _505  and  _507
REMARK  201  A    between atoms: _507  and  _508
REMARK  202  A    between atoms: _507  and  _510
REMARK  203  A    between atoms: _510  and  _511
REMARK  204  A    between atoms: _516  and  _518
REMARK  205  A    between atoms: _518  and  _519
REMARK  206  A    between atoms: _521  and  _523
REMARK  207  A    between atoms: _523  and  _524
REMARK  208  A    between atoms: _523  and  _526
REMARK  209  A    between atoms: _526  and  _527
REMARK  210  A    between atoms: _529  and  _531
REMARK  211  A    between atoms: _531  and  _532
REMARK  212  A    between atoms: _531  and  _534
REMARK  213  A    between atoms: _534  and  _535
REMARK  214  A    between atoms: _537  and  _539
REMARK  215  A    between atoms: _539  and  _540
REMARK  216  A    between atoms: _542  and  _544
REMARK  217  A    between atoms: _544  and  _545
REMARK  218  A    between atoms: _547  and  _549
REMARK  219  A    between atoms: _549  and  _550
REMARK  220  A    between atoms: _549  and  _552
REMARK  221  A    between atoms: _552  and  _553
REMARK                            x       y       z     vdW  Elec       q    Type
REMARK                         _______ _______ _______ _____ _____    ______ ____
ROOT
ATOM      1  O   HOH     1       7.230   6.813  41.981  0.00  0.00    +0.000 OA
ENDROOT
TORSDOF 0
REMARK  Name = ../refined-set-2016/2py4/2py4_pocket.pdb
REMARK  221 active torsions:
REMARK  status: ('A' for Active; 'I' for Inactive)
REMARK    1  A    between atoms: _1  and  _3
REMARK    2  A    between atoms: _3  and  _4
REMARK    3  A    between atoms: _3  and  _6
REMARK    4  A    between atoms: _6  and  _7
REMARK    5  A    between atoms: _10  and  _12
REMARK    6  A    between atoms: _12  and  _13
REMARK    7  A    between atoms: _12  and  _15
REMARK    8  A    between atoms: _15  and  _16
REMARK    9  A    between atoms: _19  and  _21
REMARK   10  A    between atoms: _21  and  _22
REMARK   11  A    between atoms: _21  and  _24
REMARK   12  A    between atoms: _27  and  _29
REMARK   13  A    between atoms: _29  and  _30
REMARK   14  A    between atoms: _29  and  _32
REMARK   15  A    between atoms: _32  and  _33
REMARK   16  A    between atoms: _36  and  _38
REMARK   17  A    between atoms: _38  and  _39
REMARK   18  A    between atoms: _38  and  _41
REMARK   19  A    between atoms: _44  and  _46
REMARK   20  A    between atoms: _46  and  _47
REMARK   21  A    between atoms: _46  and  _49
REMARK   22  A    between atoms: _52  and  _54
REMARK   23  A    between atoms: _54  and  _55
REMARK   24  A    between atoms: _54  and  _57
REMARK   25  A    between atoms: _60  and  _62
REMARK   26  A    between atoms: _62  and  _63
REMARK   27  A    between atoms: _62  and  _65
REMARK   28  A    between atoms: _68  and  _70
REMARK   29  A    between atoms: _70  and  _71
REMARK   30  A    between atoms: _73  and  _75
REMARK   31  A    between atoms: _75  and  _76
REMARK   32  A    between atoms: _75  and  _78
REMARK   33  A    between atoms: _78  and  _79
REMARK   34  A    between atoms: _82  and  _84
REMARK   35  A    between atoms: _84  and  _85
REMARK   36  A    between atoms: _84  and  _87
REMARK   37  A    between atoms: _90  and  _92
REMARK   38  A    between atoms: _92  and  _93
REMARK   39  A    between atoms: _92  and  _95
REMARK   40  A    between atoms: _95  and  _96
REMARK   41  A    between atoms: _101  and  _103
REMARK   42  A    between atoms: _103  and  _104
REMARK   43  A    between atoms: _103  and  _106
REMARK   44  A    between atoms: _106  and  _107
REMARK   45  A    between atoms: _110  and  _112
REMARK   46  A    between atoms: _112  and  _113
REMARK   47  A    between atoms: _112  and  _115
REMARK   48  A    between atoms: _118  and  _120
REMARK   49  A    between atoms: _120  and  _121
REMARK   50  A    between atoms: _120  and  _123
REMARK   51  A    between atoms: _123  and  _124
REMARK   52  A    between atoms: _129  and  _131
REMARK   53  A    between atoms: _131  and  _132
REMARK   54  A    between atoms: _131  and  _134
REMARK   55  A    between atoms: _134  and  _135
REMARK   56  A    between atoms: _138  and  _139
REMARK   57  A    between atoms: _144  and  _146
REMARK   58  A    between atoms: _146  and  _147
REMARK   59  A    between atoms: _149  and  _151
REMARK   60  A    between atoms: _151  and  _152
REMARK   61  A    between atoms: _151  and  _154
REMARK   62  A    between atoms: _154  and  _155
REMARK   63  A    between atoms: _158  and  _160
REMARK   64  A    between atoms: _160  and  _161
REMARK   65  A    between atoms: _160  and  _163
REMARK   66  A    between atoms: _163  and  _164
REMARK   67  A    between atoms: _167  and  _169
REMARK   68  A    between atoms: _169  and  _170
REMARK   69  A    between atoms: _169  and  _172
REMARK   70  A    between atoms: _172  and  _173
REMARK   71  A    between atoms: _176  and  _178
REMARK   72  A    between atoms: _178  and  _179
REMARK   73  A    between atoms: _182  and  _184
REMARK   74  A    between atoms: _184  and  _185
REMARK   75  A    between atoms: _187  and  _189
REMARK   76  A    between atoms: _189  and  _190
REMARK   77  A    between atoms: _189  and  _192
REMARK   78  A    between atoms: _192  and  _193
REMARK   79  A    between atoms: _198  and  _199
REMARK   80  A    between atoms: _201  and  _203
REMARK   81  A    between atoms: _203  and  _204
REMARK   82  A    between atoms: _203  and  _206
REMARK   83  A    between atoms: _206  and  _207
REMARK   84  A    between atoms: _207  and  _208
REMARK   85  A    between atoms: _208  and  _209
REMARK   86  A    between atoms: _218  and  _220
REMARK   87  A    between atoms: _220  and  _221
REMARK   88  A    between atoms: _223  and  _225
REMARK   89  A    between atoms: _225  and  _226
REMARK   90  A    between atoms: _225  and  _228
REMARK   91  A    between atoms: _228  and  _229
REMARK   92  A    between atoms: _229  and  _230
REMARK   93  A    between atoms: _233  and  _235
REMARK   94  A    between atoms: _235  and  _236
REMARK   95  A    between atoms: _235  and  _238
REMARK   96  A    between atoms: _238  and  _239
REMARK   97  A    between atoms: _242  and  _244
REMARK   98  A    between atoms: _244  and  _245
REMARK   99  A    between atoms: _244  and  _247
REMARK  100  A    between atoms: _247  and  _248
REMARK  101  A    between atoms: _248  and  _249
REMARK  102  A    between atoms: _249  and  _250
REMARK  103  A    between atoms: _250  and  _251
REMARK  104  A    between atoms: _255  and  _257
REMARK  105  A    between atoms: _257  and  _258
REMARK  106  A    between atoms: _257  and  _260
REMARK  107  A    between atoms: _263  and  _265
REMARK  108  A    between atoms: _265  and  _266
REMARK  109  A    between atoms: _269  and  _271
REMARK  110  A    between atoms: _271  and  _272
REMARK  111  A    between atoms: _271  and  _274
REMARK  112  A    between atoms: _274  and  _275
REMARK  113  A    between atoms: _278  and  _280
REMARK  114  A    between atoms: _280  and  _281
REMARK  115  A    between atoms: _280  and  _283
REMARK  116  A    between atoms: _283  and  _284
REMARK  117  A    between atoms: _284  and  _285
REMARK  118  A    between atoms: _285  and  _286
REMARK  119  A    between atoms: _295  and  _297
REMARK  120  A    between atoms: _297  and  _298
REMARK  121  A    between atoms: _301  and  _303
REMARK  122  A    between atoms: _303  and  _304
REMARK  123  A    between atoms: _303  and  _306
REMARK  124  A    between atoms: _306  and  _307
REMARK  125  A    between atoms: _312  and  _314
REMARK  126  A    between atoms: _314  and  _315
REMARK  127  A    between atoms: _314  and  _317
REMARK  128  A    between atoms: _317  and  _318
REMARK  129  A    between atoms: _321  and  _323
REMARK  130  A    between atoms: _323  and  _324
REMARK  131  A    between atoms: _327  and  _329
REMARK  132  A    between atoms: _329  and  _330
REMARK  133  A    between atoms: _332  and  _334
REMARK  134  A    between atoms: _334  and  _335
REMARK  135  A    between atoms: _334  and  _337
REMARK  136  A    between atoms: _337  and  _338
REMARK  137  A    between atoms: _341  and  _343
REMARK  138  A    between atoms: _343  and  _344
REMARK  139  A    between atoms: _343  and  _346
REMARK  140  A    between atoms: _346  and  _347
REMARK  141  A    between atoms: _353  and  _354
REMARK  142  A    between atoms: _359  and  _361
REMARK  143  A    between atoms: _361  and  _362
REMARK  144  A    between atoms: _361  and  _364
REMARK  145  A    between atoms: _364  and  _365
REMARK  146  A    between atoms: _365  and  _366
REMARK  147  A    between atoms: _366  and  _367
REMARK  148  A    between atoms: _376  and  _378
REMARK  149  A    between atoms: _378  and  _379
REMARK  150  A    between atoms: _378  and  _381
REMARK  151  A    between atoms: _381  and  _382
REMARK  152  A    between atoms: _384  and  _386
REMARK  153  A    between atoms: _386  and  _387
REMARK  154  A    between atoms: _389  and  _391
REMARK  155  A    between atoms: _391  and  _392
REMARK  156  A    between atoms: _391  and  _394
REMARK  157  A    between atoms: _394  and  _395
REMARK  158  A    between atoms: _398  and  _400
REMARK  159  A    between atoms: _400  and  _401
REMARK  160  A    between atoms: _404  and  _406
REMARK  161  A    between atoms: _406  and  _407
REMARK  162  A    between atoms: _406  and  _409
REMARK  163  A    between atoms: _409  and  _410
REMARK  164  A    between atoms: _413  and  _415
REMARK  165  A    between atoms: _415  and  _416
REMARK  166  A    between atoms: _415  and  _418
REMARK  167  A    between atoms: _420  and  _422
REMARK  168  A    between atoms: _422  and  _423
REMARK  169  A    between atoms: _422  and  _425
REMARK  170  A    between atoms: _425  and  _426
REMARK  171  A    between atoms: _426  and  _427
REMARK  172  A    between atoms: _427  and  _428
REMARK  173  A    between atoms: _437  and  _439
REMARK  174  A    between atoms: _439  and  _440
REMARK  175  A    between atoms: _443  and  _445
REMARK  176  A    between atoms: _445  and  _446
REMARK  177  A    between atoms: _445  and  _448
REMARK  178  A    between atoms: _448  and  _449
REMARK  179  A    between atoms: _449  and  _450
REMARK  180  A    between atoms: _455  and  _457
REMARK  181  A    between atoms: _457  and  _458
REMARK  182  A    between atoms: _457  and  _460
REMARK  183  A    between atoms: _460  and  _461
REMARK  184  A    between atoms: _464  and  _466
REMARK  185  A    between atoms: _466  and  _467
REMARK  186  A    between atoms: _466  and  _469
REMARK  187  A    between atoms: _469  and  _470
REMARK  188  A    between atoms: _470  and  _471
REMARK  189  A    between atoms: _471  and  _472
REMARK  190  A    between atoms: _481  and  _483
REMARK  191  A    between atoms: _483  and  _484
REMARK  192  A    between atoms: _486  and  _488
REMARK  193  A    between atoms: _488  and  _489
REMARK  194  A    between atoms: _488  and  _491
REMARK  195  A    between atoms: _491  and  _492
REMARK  196  A    between atoms: _495  and  _497
REMARK  197  A    between atoms: _497  and  _498
REMARK  198  A    between atoms: _500  and  _502
REMARK  199  A    between atoms: _502  and  _503
REMARK  200  A    between atoms: _505  and  _507
REMARK  201  A    between atoms: _507  and  _508
REMARK  202  A    between atoms: _507  and  _510
REMARK  203  A    between atoms: _510  and  _511
REMARK  204  A    between atoms: _516  and  _518
REMARK  205  A    between atoms: _518  and  _519
REMARK  206  A    between atoms: _521  and  _523
REMARK  207  A    between atoms: _523  and  _524
REMARK  208  A    between atoms: _523  and  _526
REMARK  209  A    between atoms: _526  and  _527
REMARK  210  A    between atoms: _529  and  _531
REMARK  211  A    between atoms: _531  and  _532
REMARK  212  A    between atoms: _531  and  _534
REMARK  213  A    between atoms: _534  and  _535
REMARK  214  A    between atoms: _537  and  _539
REMARK  215  A    between atoms: _539  and  _540
REMARK  216  A    between atoms: _542  and  _544
REMARK  217  A    between atoms: _544  and  _545
REMARK  218  A    between atoms: _547  and  _549
REMARK  219  A    between atoms: _549  and  _550
REMARK  220  A    between atoms: _549  and  _552
REMARK  221  A    between atoms: _552  and  _553
REMARK                            x       y       z     vdW  Elec       q    Type
REMARK                         _______ _______ _______ _____ _____    ______ ____
ROOT
ATOM      1  O   HOH     1       9.334   2.345  37.873  0.00  0.00    +0.000 OA
ENDROOT
TORSDOF 0
REMARK  Name = ../refined-set-2016/2py4/2py4_pocket.pdb
REMARK  221 active torsions:
REMARK  status: ('A' for Active; 'I' for Inactive)
REMARK    1  A    between atoms: _1  and  _3
REMARK    2  A    between atoms: _3  and  _4
REMARK    3  A    between atoms: _3  and  _6
REMARK    4  A    between atoms: _6  and  _7
REMARK    5  A    between atoms: _10  and  _12
REMARK    6  A    between atoms: _12  and  _13
REMARK    7  A    between atoms: _12  and  _15
REMARK    8  A    between atoms: _15  and  _16
REMARK    9  A    between atoms: _19  and  _21
REMARK   10  A    between atoms: _21  and  _22
REMARK   11  A    between atoms: _21  and  _24
REMARK   12  A    between atoms: _27  and  _29
REMARK   13  A    between atoms: _29  and  _30
REMARK   14  A    between atoms: _29  and  _32
REMARK   15  A    between atoms: _32  and  _33
REMARK   16  A    between atoms: _36  and  _38
REMARK   17  A    between atoms: _38  and  _39
REMARK   18  A    between atoms: _38  and  _41
REMARK   19  A    between atoms: _44  and  _46
REMARK   20  A    between atoms: _46  and  _47
REMARK   21  A    between atoms: _46  and  _49
REMARK   22  A    between atoms: _52  and  _54
REMARK   23  A    between atoms: _54  and  _55
REMARK   24  A    between atoms: _54  and  _57
REMARK   25  A    between atoms: _60  and  _62
REMARK   26  A    between atoms: _62  and  _63
REMARK   27  A    between atoms: _62  and  _65
REMARK   28  A    between atoms: _68  and  _70
REMARK   29  A    between atoms: _70  and  _71
REMARK   30  A    between atoms: _73  and  _75
REMARK   31  A    between atoms: _75  and  _76
REMARK   32  A    between atoms: _75  and  _78
REMARK   33  A    between atoms: _78  and  _79
REMARK   34  A    between atoms: _82  and  _84
REMARK   35  A    between atoms: _84  and  _85
REMARK   36  A    between atoms: _84  and  _87
REMARK   37  A    between atoms: _90  and  _92
REMARK   38  A    between atoms: _92  and  _93
REMARK   39  A    between atoms: _92  and  _95
REMARK   40  A    between atoms: _95  and  _96
REMARK   41  A    between atoms: _101  and  _103
REMARK   42  A    between atoms: _103  and  _104
REMARK   43  A    between atoms: _103  and  _106
REMARK   44  A    between atoms: _106  and  _107
REMARK   45  A    between atoms: _110  and  _112
REMARK   46  A    between atoms: _112  and  _113
REMARK   47  A    between atoms: _112  and  _115
REMARK   48  A    between atoms: _118  and  _120
REMARK   49  A    between atoms: _120  and  _121
REMARK   50  A    between atoms: _120  and  _123
REMARK   51  A    between atoms: _123  and  _124
REMARK   52  A    between atoms: _129  and  _131
REMARK   53  A    between atoms: _131  and  _132
REMARK   54  A    between atoms: _131  and  _134
REMARK   55  A    between atoms: _134  and  _135
REMARK   56  A    between atoms: _138  and  _139
REMARK   57  A    between atoms: _144  and  _146
REMARK   58  A    between atoms: _146  and  _147
REMARK   59  A    between atoms: _149  and  _151
REMARK   60  A    between atoms: _151  and  _152
REMARK   61  A    between atoms: _151  and  _154
REMARK   62  A    between atoms: _154  and  _155
REMARK   63  A    between atoms: _158  and  _160
REMARK   64  A    between atoms: _160  and  _161
REMARK   65  A    between atoms: _160  and  _163
REMARK   66  A    between atoms: _163  and  _164
REMARK   67  A    between atoms: _167  and  _169
REMARK   68  A    between atoms: _169  and  _170
REMARK   69  A    between atoms: _169  and  _172
REMARK   70  A    between atoms: _172  and  _173
REMARK   71  A    between atoms: _176  and  _178
REMARK   72  A    between atoms: _178  and  _179
REMARK   73  A    between atoms: _182  and  _184
REMARK   74  A    between atoms: _184  and  _185
REMARK   75  A    between atoms: _187  and  _189
REMARK   76  A    between atoms: _189  and  _190
REMARK   77  A    between atoms: _189  and  _192
REMARK   78  A    between atoms: _192  and  _193
REMARK   79  A    between atoms: _198  and  _199
REMARK   80  A    between atoms: _201  and  _203
REMARK   81  A    between atoms: _203  and  _204
REMARK   82  A    between atoms: _203  and  _206
REMARK   83  A    between atoms: _206  and  _207
REMARK   84  A    between atoms: _207  and  _208
REMARK   85  A    between atoms: _208  and  _209
REMARK   86  A    between atoms: _218  and  _220
REMARK   87  A    between atoms: _220  and  _221
REMARK   88  A    between atoms: _223  and  _225
REMARK   89  A    between atoms: _225  and  _226
REMARK   90  A    between atoms: _225  and  _228
REMARK   91  A    between atoms: _228  and  _229
REMARK   92  A    between atoms: _229  and  _230
REMARK   93  A    between atoms: _233  and  _235
REMARK   94  A    between atoms: _235  and  _236
REMARK   95  A    between atoms: _235  and  _238
REMARK   96  A    between atoms: _238  and  _239
REMARK   97  A    between atoms: _242  and  _244
REMARK   98  A    between atoms: _244  and  _245
REMARK   99  A    between atoms: _244  and  _247
REMARK  100  A    between atoms: _247  and  _248
REMARK  101  A    between atoms: _248  and  _249
REMARK  102  A    between atoms: _249  and  _250
REMARK  103  A    between atoms: _250  and  _251
REMARK  104  A    between atoms: _255  and  _257
REMARK  105  A    between atoms: _257  and  _258
REMARK  106  A    between atoms: _257  and  _260
REMARK  107  A    between atoms: _263  and  _265
REMARK  108  A    between atoms: _265  and  _266
REMARK  109  A    between atoms: _269  and  _271
REMARK  110  A    between atoms: _271  and  _272
REMARK  111  A    between atoms: _271  and  _274
REMARK  112  A    between atoms: _274  and  _275
REMARK  113  A    between atoms: _278  and  _280
REMARK  114  A    between atoms: _280  and  _281
REMARK  115  A    between atoms: _280  and  _283
REMARK  116  A    between atoms: _283  and  _284
REMARK  117  A    between atoms: _284  and  _285
REMARK  118  A    between atoms: _285  and  _286
REMARK  119  A    between atoms: _295  and  _297
REMARK  120  A    between atoms: _297  and  _298
REMARK  121  A    between atoms: _301  and  _303
REMARK  122  A    between atoms: _303  and  _304
REMARK  123  A    between atoms: _303  and  _306
REMARK  124  A    between atoms: _306  and  _307
REMARK  125  A    between atoms: _312  and  _314
REMARK  126  A    between atoms: _314  and  _315
REMARK  127  A    between atoms: _314  and  _317
REMARK  128  A    between atoms: _317  and  _318
REMARK  129  A    between atoms: _321  and  _323
REMARK  130  A    between atoms: _323  and  _324
REMARK  131  A    between atoms: _327  and  _329
REMARK  132  A    between atoms: _329  and  _330
REMARK  133  A    between atoms: _332  and  _334
REMARK  134  A    between atoms: _334  and  _335
REMARK  135  A    between atoms: _334  and  _337
REMARK  136  A    between atoms: _337  and  _338
REMARK  137  A    between atoms: _341  and  _343
REMARK  138  A    between atoms: _343  and  _344
REMARK  139  A    between atoms: _343  and  _346
REMARK  140  A    between atoms: _346  and  _347
REMARK  141  A    between atoms: _353  and  _354
REMARK  142  A    between atoms: _359  and  _361
REMARK  143  A    between atoms: _361  and  _362
REMARK  144  A    between atoms: _361  and  _364
REMARK  145  A    between atoms: _364  and  _365
REMARK  146  A    between atoms: _365  and  _366
REMARK  147  A    between atoms: _366  and  _367
REMARK  148  A    between atoms: _376  and  _378
REMARK  149  A    between atoms: _378  and  _379
REMARK  150  A    between atoms: _378  and  _381
REMARK  151  A    between atoms: _381  and  _382
REMARK  152  A    between atoms: _384  and  _386
REMARK  153  A    between atoms: _386  and  _387
REMARK  154  A    between atoms: _389  and  _391
REMARK  155  A    between atoms: _391  and  _392
REMARK  156  A    between atoms: _391  and  _394
REMARK  157  A    between atoms: _394  and  _395
REMARK  158  A    between atoms: _398  and  _400
REMARK  159  A    between atoms: _400  and  _401
REMARK  160  A    between atoms: _404  and  _406
REMARK  161  A    between atoms: _406  and  _407
REMARK  162  A    between atoms: _406  and  _409
REMARK  163  A    between atoms: _409  and  _410
REMARK  164  A    between atoms: _413  and  _415
REMARK  165  A    between atoms: _415  and  _416
REMARK  166  A    between atoms: _415  and  _418
REMARK  167  A    between atoms: _420  and  _422
REMARK  168  A    between atoms: _422  and  _423
REMARK  169  A    between atoms: _422  and  _425
REMARK  170  A    between atoms: _425  and  _426
REMARK  171  A    between atoms: _426  and  _427
REMARK  172  A    between atoms: _427  and  _428
REMARK  173  A    between atoms: _437  and  _439
REMARK  174  A    between atoms: _439  and  _440
REMARK  175  A    between atoms: _443  and  _445
REMARK  176  A    between atoms: _445  and  _446
REMARK  177  A    between atoms: _445  and  _448
REMARK  178  A    between atoms: _448  and  _449
REMARK  179  A    between atoms: _449  and  _450
REMARK  180  A    between atoms: _455  and  _457
REMARK  181  A    between atoms: _457  and  _458
REMARK  182  A    between atoms: _457  and  _460
REMARK  183  A    between atoms: _460  and  _461
REMARK  184  A    between atoms: _464  and  _466
REMARK  185  A    between atoms: _466  and  _467
REMARK  186  A    between atoms: _466  and  _469
REMARK  187  A    between atoms: _469  and  _470
REMARK  188  A    between atoms: _470  and  _471
REMARK  189  A    between atoms: _471  and  _472
REMARK  190  A    between atoms: _481  and  _483
REMARK  191  A    between atoms: _483  and  _484
REMARK  192  A    between atoms: _486  and  _488
REMARK  193  A    between atoms: _488  and  _489
REMARK  194  A    between atoms: _488  and  _491
REMARK  195  A    between atoms: _491  and  _492
REMARK  196  A    between atoms: _495  and  _497
REMARK  197  A    between atoms: _497  and  _498
REMARK  198  A    between atoms: _500  and  _502
REMARK  199  A    between atoms: _502  and  _503
REMARK  200  A    between atoms: _505  and  _507
REMARK  201  A    between atoms: _507  and  _508
REMARK  202  A    between atoms: _507  and  _510
REMARK  203  A    between atoms: _510  and  _511
REMARK  204  A    between atoms: _516  and  _518
REMARK  205  A    between atoms: _518  and  _519
REMARK  206  A    between atoms: _521  and  _523
REMARK  207  A    between atoms: _523  and  _524
REMARK  208  A    between atoms: _523  and  _526
REMARK  209  A    between atoms: _526  and  _527
REMARK  210  A    between atoms: _529  and  _531
REMARK  211  A    between atoms: _531  and  _532
REMARK  212  A    between atoms: _531  and  _534
REMARK  213  A    between atoms: _534  and  _535
REMARK  214  A    between atoms: _537  and  _539
REMARK  215  A    between atoms: _539  and  _540
REMARK  216  A    between atoms: _542  and  _544
REMARK  217  A    between atoms: _544  and  _545
REMARK  218  A    between atoms: _547  and  _549
REMARK  219  A    between atoms: _549  and  _550
REMARK  220  A    between atoms: _549  and  _552
REMARK  221  A    between atoms: _552  and  _553
REMARK                            x       y       z     vdW  Elec       q    Type
REMARK                         _______ _______ _______ _____ _____    ______ ____
ROOT
ATOM      1  O   HOH     1       7.020   3.515  36.889  0.00  0.00    +0.000 OA
ENDROOT
TORSDOF 0
REMARK  Name = ../refined-set-2016/2py4/2py4_pocket.pdb
REMARK  221 active torsions:
REMARK  status: ('A' for Active; 'I' for Inactive)
REMARK    1  A    between atoms: _1  and  _3
REMARK    2  A    between atoms: _3  and  _4
REMARK    3  A    between atoms: _3  and  _6
REMARK    4  A    between atoms: _6  and  _7
REMARK    5  A    between atoms: _10  and  _12
REMARK    6  A    between atoms: _12  and  _13
REMARK    7  A    between atoms: _12  and  _15
REMARK    8  A    between atoms: _15  and  _16
REMARK    9  A    between atoms: _19  and  _21
REMARK   10  A    between atoms: _21  and  _22
REMARK   11  A    between atoms: _21  and  _24
REMARK   12  A    between atoms: _27  and  _29
REMARK   13  A    between atoms: _29  and  _30
REMARK   14  A    between atoms: _29  and  _32
REMARK   15  A    between atoms: _32  and  _33
REMARK   16  A    between atoms: _36  and  _38
REMARK   17  A    between atoms: _38  and  _39
REMARK   18  A    between atoms: _38  and  _41
REMARK   19  A    between atoms: _44  and  _46
REMARK   20  A    between atoms: _46  and  _47
REMARK   21  A    between atoms: _46  and  _49
REMARK   22  A    between atoms: _52  and  _54
REMARK   23  A    between atoms: _54  and  _55
REMARK   24  A    between atoms: _54  and  _57
REMARK   25  A    between atoms: _60  and  _62
REMARK   26  A    between atoms: _62  and  _63
REMARK   27  A    between atoms: _62  and  _65
REMARK   28  A    between atoms: _68  and  _70
REMARK   29  A    between atoms: _70  and  _71
REMARK   30  A    between atoms: _73  and  _75
REMARK   31  A    between atoms: _75  and  _76
REMARK   32  A    between atoms: _75  and  _78
REMARK   33  A    between atoms: _78  and  _79
REMARK   34  A    between atoms: _82  and  _84
REMARK   35  A    between atoms: _84  and  _85
REMARK   36  A    between atoms: _84  and  _87
REMARK   37  A    between atoms: _90  and  _92
REMARK   38  A    between atoms: _92  and  _93
REMARK   39  A    between atoms: _92  and  _95
REMARK   40  A    between atoms: _95  and  _96
REMARK   41  A    between atoms: _101  and  _103
REMARK   42  A    between atoms: _103  and  _104
REMARK   43  A    between atoms: _103  and  _106
REMARK   44  A    between atoms: _106  and  _107
REMARK   45  A    between atoms: _110  and  _112
REMARK   46  A    between atoms: _112  and  _113
REMARK   47  A    between atoms: _112  and  _115
REMARK   48  A    between atoms: _118  and  _120
REMARK   49  A    between atoms: _120  and  _121
REMARK   50  A    between atoms: _120  and  _123
REMARK   51  A    between atoms: _123  and  _124
REMARK   52  A    between atoms: _129  and  _131
REMARK   53  A    between atoms: _131  and  _132
REMARK   54  A    between atoms: _131  and  _134
REMARK   55  A    between atoms: _134  and  _135
REMARK   56  A    between atoms: _138  and  _139
REMARK   57  A    between atoms: _144  and  _146
REMARK   58  A    between atoms: _146  and  _147
REMARK   59  A    between atoms: _149  and  _151
REMARK   60  A    between atoms: _151  and  _152
REMARK   61  A    between atoms: _151  and  _154
REMARK   62  A    between atoms: _154  and  _155
REMARK   63  A    between atoms: _158  and  _160
REMARK   64  A    between atoms: _160  and  _161
REMARK   65  A    between atoms: _160  and  _163
REMARK   66  A    between atoms: _163  and  _164
REMARK   67  A    between atoms: _167  and  _169
REMARK   68  A    between atoms: _169  and  _170
REMARK   69  A    between atoms: _169  and  _172
REMARK   70  A    between atoms: _172  and  _173
REMARK   71  A    between atoms: _176  and  _178
REMARK   72  A    between atoms: _178  and  _179
REMARK   73  A    between atoms: _182  and  _184
REMARK   74  A    between atoms: _184  and  _185
REMARK   75  A    between atoms: _187  and  _189
REMARK   76  A    between atoms: _189  and  _190
REMARK   77  A    between atoms: _189  and  _192
REMARK   78  A    between atoms: _192  and  _193
REMARK   79  A    between atoms: _198  and  _199
REMARK   80  A    between atoms: _201  and  _203
REMARK   81  A    between atoms: _203  and  _204
REMARK   82  A    between atoms: _203  and  _206
REMARK   83  A    between atoms: _206  and  _207
REMARK   84  A    between atoms: _207  and  _208
REMARK   85  A    between atoms: _208  and  _209
REMARK   86  A    between atoms: _218  and  _220
REMARK   87  A    between atoms: _220  and  _221
REMARK   88  A    between atoms: _223  and  _225
REMARK   89  A    between atoms: _225  and  _226
REMARK   90  A    between atoms: _225  and  _228
REMARK   91  A    between atoms: _228  and  _229
REMARK   92  A    between atoms: _229  and  _230
REMARK   93  A    between atoms: _233  and  _235
REMARK   94  A    between atoms: _235  and  _236
REMARK   95  A    between atoms: _235  and  _238
REMARK   96  A    between atoms: _238  and  _239
REMARK   97  A    between atoms: _242  and  _244
REMARK   98  A    between atoms: _244  and  _245
REMARK   99  A    between atoms: _244  and  _247
REMARK  100  A    between atoms: _247  and  _248
REMARK  101  A    between atoms: _248  and  _249
REMARK  102  A    between atoms: _249  and  _250
REMARK  103  A    between atoms: _250  and  _251
REMARK  104  A    between atoms: _255  and  _257
REMARK  105  A    between atoms: _257  and  _258
REMARK  106  A    between atoms: _257  and  _260
REMARK  107  A    between atoms: _263  and  _265
REMARK  108  A    between atoms: _265  and  _266
REMARK  109  A    between atoms: _269  and  _271
REMARK  110  A    between atoms: _271  and  _272
REMARK  111  A    between atoms: _271  and  _274
REMARK  112  A    between atoms: _274  and  _275
REMARK  113  A    between atoms: _278  and  _280
REMARK  114  A    between atoms: _280  and  _281
REMARK  115  A    between atoms: _280  and  _283
REMARK  116  A    between atoms: _283  and  _284
REMARK  117  A    between atoms: _284  and  _285
REMARK  118  A    between atoms: _285  and  _286
REMARK  119  A    between atoms: _295  and  _297
REMARK  120  A    between atoms: _297  and  _298
REMARK  121  A    between atoms: _301  and  _303
REMARK  122  A    between atoms: _303  and  _304
REMARK  123  A    between atoms: _303  and  _306
REMARK  124  A    between atoms: _306  and  _307
REMARK  125  A    between atoms: _312  and  _314
REMARK  126  A    between atoms: _314  and  _315
REMARK  127  A    between atoms: _314  and  _317
REMARK  128  A    between atoms: _317  and  _318
REMARK  129  A    between atoms: _321  and  _323
REMARK  130  A    between atoms: _323  and  _324
REMARK  131  A    between atoms: _327  and  _329
REMARK  132  A    between atoms: _329  and  _330
REMARK  133  A    between atoms: _332  and  _334
REMARK  134  A    between atoms: _334  and  _335
REMARK  135  A    between atoms: _334  and  _337
REMARK  136  A    between atoms: _337  and  _338
REMARK  137  A    between atoms: _341  and  _343
REMARK  138  A    between atoms: _343  and  _344
REMARK  139  A    between atoms: _343  and  _346
REMARK  140  A    between atoms: _346  and  _347
REMARK  141  A    between atoms: _353  and  _354
REMARK  142  A    between atoms: _359  and  _361
REMARK  143  A    between atoms: _361  and  _362
REMARK  144  A    between atoms: _361  and  _364
REMARK  145  A    between atoms: _364  and  _365
REMARK  146  A    between atoms: _365  and  _366
REMARK  147  A    between atoms: _366  and  _367
REMARK  148  A    between atoms: _376  and  _378
REMARK  149  A    between atoms: _378  and  _379
REMARK  150  A    between atoms: _378  and  _381
REMARK  151  A    between atoms: _381  and  _382
REMARK  152  A    between atoms: _384  and  _386
REMARK  153  A    between atoms: _386  and  _387
REMARK  154  A    between atoms: _389  and  _391
REMARK  155  A    between atoms: _391  and  _392
REMARK  156  A    between atoms: _391  and  _394
REMARK  157  A    between atoms: _394  and  _395
REMARK  158  A    between atoms: _398  and  _400
REMARK  159  A    between atoms: _400  and  _401
REMARK  160  A    between atoms: _404  and  _406
REMARK  161  A    between atoms: _406  and  _407
REMARK  162  A    between atoms: _406  and  _409
REMARK  163  A    between atoms: _409  and  _410
REMARK  164  A    between atoms: _413  and  _415
REMARK  165  A    between atoms: _415  and  _416
REMARK  166  A    between atoms: _415  and  _418
REMARK  167  A    between atoms: _420  and  _422
REMARK  168  A    between atoms: _422  and  _423
REMARK  169  A    between atoms: _422  and  _425
REMARK  170  A    between atoms: _425  and  _426
REMARK  171  A    between atoms: _426  and  _427
REMARK  172  A    between atoms: _427  and  _428
REMARK  173  A    between atoms: _437  and  _439
REMARK  174  A    between atoms: _439  and  _440
REMARK  175  A    between atoms: _443  and  _445
REMARK  176  A    between atoms: _445  and  _446
REMARK  177  A    between atoms: _445  and  _448
REMARK  178  A    between atoms: _448  and  _449
REMARK  179  A    between atoms: _449  and  _450
REMARK  180  A    between atoms: _455  and  _457
REMARK  181  A    between atoms: _457  and  _458
REMARK  182  A    between atoms: _457  and  _460
REMARK  183  A    between atoms: _460  and  _461
REMARK  184  A    between atoms: _464  and  _466
REMARK  185  A    between atoms: _466  and  _467
REMARK  186  A    between atoms: _466  and  _469
REMARK  187  A    between atoms: _469  and  _470
REMARK  188  A    between atoms: _470  and  _471
REMARK  189  A    between atoms: _471  and  _472
REMARK  190  A    between atoms: _481  and  _483
REMARK  191  A    between atoms: _483  and  _484
REMARK  192  A    between atoms: _486  and  _488
REMARK  193  A    between atoms: _488  and  _489
REMARK  194  A    between atoms: _488  and  _491
REMARK  195  A    between atoms: _491  and  _492
REMARK  196  A    between atoms: _495  and  _497
REMARK  197  A    between atoms: _497  and  _498
REMARK  198  A    between atoms: _500  and  _502
REMARK  199  A    between atoms: _502  and  _503
REMARK  200  A    between atoms: _505  and  _507
REMARK  201  A    between atoms: _507  and  _508
REMARK  202  A    between atoms: _507  and  _510
REMARK  203  A    between atoms: _510  and  _511
REMARK  204  A    between atoms: _516  and  _518
REMARK  205  A    between atoms: _518  and  _519
REMARK  206  A    between atoms: _521  and  _523
REMARK  207  A    between atoms: _523  and  _524
REMARK  208  A    between atoms: _523  and  _526
REMARK  209  A    between atoms: _526  and  _527
REMARK  210  A    between atoms: _529  and  _531
REMARK  211  A    between atoms: _531  and  _532
REMARK  212  A    between atoms: _531  and  _534
REMARK  213  A    between atoms: _534  and  _535
REMARK  214  A    between atoms: _537  and  _539
REMARK  215  A    between atoms: _539  and  _540
REMARK  216  A    between atoms: _542  and  _544
REMARK  217  A    between atoms: _544  and  _545
REMARK  218  A    between atoms: _547  and  _549
REMARK  219  A    between atoms: _549  and  _550
REMARK  220  A    between atoms: _549  and  _552
REMARK  221  A    between atoms: _552  and  _553
REMARK                            x       y       z     vdW  Elec       q    Type
REMARK                         _______ _______ _______ _____ _____    ______ ____
ROOT
ATOM      1  O   HOH     1      10.183   0.561  44.989  0.00  0.00    +0.000 OA
ENDROOT
TORSDOF 0
REMARK  Name = ../refined-set-2016/2py4/2py4_pocket.pdb
REMARK  221 active torsions:
REMARK  status: ('A' for Active; 'I' for Inactive)
REMARK    1  A    between atoms: _1  and  _3
REMARK    2  A    between atoms: _3  and  _4
REMARK    3  A    between atoms: _3  and  _6
REMARK    4  A    between atoms: _6  and  _7
REMARK    5  A    between atoms: _10  and  _12
REMARK    6  A    between atoms: _12  and  _13
REMARK    7  A    between atoms: _12  and  _15
REMARK    8  A    between atoms: _15  and  _16
REMARK    9  A    between atoms: _19  and  _21
REMARK   10  A    between atoms: _21  and  _22
REMARK   11  A    between atoms: _21  and  _24
REMARK   12  A    between atoms: _27  and  _29
REMARK   13  A    between atoms: _29  and  _30
REMARK   14  A    between atoms: _29  and  _32
REMARK   15  A    between atoms: _32  and  _33
REMARK   16  A    between atoms: _36  and  _38
REMARK   17  A    between atoms: _38  and  _39
REMARK   18  A    between atoms: _38  and  _41
REMARK   19  A    between atoms: _44  and  _46
REMARK   20  A    between atoms: _46  and  _47
REMARK   21  A    between atoms: _46  and  _49
REMARK   22  A    between atoms: _52  and  _54
REMARK   23  A    between atoms: _54  and  _55
REMARK   24  A    between atoms: _54  and  _57
REMARK   25  A    between atoms: _60  and  _62
REMARK   26  A    between atoms: _62  and  _63
REMARK   27  A    between atoms: _62  and  _65
REMARK   28  A    between atoms: _68  and  _70
REMARK   29  A    between atoms: _70  and  _71
REMARK   30  A    between atoms: _73  and  _75
REMARK   31  A    between atoms: _75  and  _76
REMARK   32  A    between atoms: _75  and  _78
REMARK   33  A    between atoms: _78  and  _79
REMARK   34  A    between atoms: _82  and  _84
REMARK   35  A    between atoms: _84  and  _85
REMARK   36  A    between atoms: _84  and  _87
REMARK   37  A    between atoms: _90  and  _92
REMARK   38  A    between atoms: _92  and  _93
REMARK   39  A    between atoms: _92  and  _95
REMARK   40  A    between atoms: _95  and  _96
REMARK   41  A    between atoms: _101  and  _103
REMARK   42  A    between atoms: _103  and  _104
REMARK   43  A    between atoms: _103  and  _106
REMARK   44  A    between atoms: _106  and  _107
REMARK   45  A    between atoms: _110  and  _112
REMARK   46  A    between atoms: _112  and  _113
REMARK   47  A    between atoms: _112  and  _115
REMARK   48  A    between atoms: _118  and  _120
REMARK   49  A    between atoms: _120  and  _121
REMARK   50  A    between atoms: _120  and  _123
REMARK   51  A    between atoms: _123  and  _124
REMARK   52  A    between atoms: _129  and  _131
REMARK   53  A    between atoms: _131  and  _132
REMARK   54  A    between atoms: _131  and  _134
REMARK   55  A    between atoms: _134  and  _135
REMARK   56  A    between atoms: _138  and  _139
REMARK   57  A    between atoms: _144  and  _146
REMARK   58  A    between atoms: _146  and  _147
REMARK   59  A    between atoms: _149  and  _151
REMARK   60  A    between atoms: _151  and  _152
REMARK   61  A    between atoms: _151  and  _154
REMARK   62  A    between atoms: _154  and  _155
REMARK   63  A    between atoms: _158  and  _160
REMARK   64  A    between atoms: _160  and  _161
REMARK   65  A    between atoms: _160  and  _163
REMARK   66  A    between atoms: _163  and  _164
REMARK   67  A    between atoms: _167  and  _169
REMARK   68  A    between atoms: _169  and  _170
REMARK   69  A    between atoms: _169  and  _172
REMARK   70  A    between atoms: _172  and  _173
REMARK   71  A    between atoms: _176  and  _178
REMARK   72  A    between atoms: _178  and  _179
REMARK   73  A    between atoms: _182  and  _184
REMARK   74  A    between atoms: _184  and  _185
REMARK   75  A    between atoms: _187  and  _189
REMARK   76  A    between atoms: _189  and  _190
REMARK   77  A    between atoms: _189  and  _192
REMARK   78  A    between atoms: _192  and  _193
REMARK   79  A    between atoms: _198  and  _199
REMARK   80  A    between atoms: _201  and  _203
REMARK   81  A    between atoms: _203  and  _204
REMARK   82  A    between atoms: _203  and  _206
REMARK   83  A    between atoms: _206  and  _207
REMARK   84  A    between atoms: _207  and  _208
REMARK   85  A    between atoms: _208  and  _209
REMARK   86  A    between atoms: _218  and  _220
REMARK   87  A    between atoms: _220  and  _221
REMARK   88  A    between atoms: _223  and  _225
REMARK   89  A    between atoms: _225  and  _226
REMARK   90  A    between atoms: _225  and  _228
REMARK   91  A    between atoms: _228  and  _229
REMARK   92  A    between atoms: _229  and  _230
REMARK   93  A    between atoms: _233  and  _235
REMARK   94  A    between atoms: _235  and  _236
REMARK   95  A    between atoms: _235  and  _238
REMARK   96  A    between atoms: _238  and  _239
REMARK   97  A    between atoms: _242  and  _244
REMARK   98  A    between atoms: _244  and  _245
REMARK   99  A    between atoms: _244  and  _247
REMARK  100  A    between atoms: _247  and  _248
REMARK  101  A    between atoms: _248  and  _249
REMARK  102  A    between atoms: _249  and  _250
REMARK  103  A    between atoms: _250  and  _251
REMARK  104  A    between atoms: _255  and  _257
REMARK  105  A    between atoms: _257  and  _258
REMARK  106  A    between atoms: _257  and  _260
REMARK  107  A    between atoms: _263  and  _265
REMARK  108  A    between atoms: _265  and  _266
REMARK  109  A    between atoms: _269  and  _271
REMARK  110  A    between atoms: _271  and  _272
REMARK  111  A    between atoms: _271  and  _274
REMARK  112  A    between atoms: _274  and  _275
REMARK  113  A    between atoms: _278  and  _280
REMARK  114  A    between atoms: _280  and  _281
REMARK  115  A    between atoms: _280  and  _283
REMARK  116  A    between atoms: _283  and  _284
REMARK  117  A    between atoms: _284  and  _285
REMARK  118  A    between atoms: _285  and  _286
REMARK  119  A    between atoms: _295  and  _297
REMARK  120  A    between atoms: _297  and  _298
REMARK  121  A    between atoms: _301  and  _303
REMARK  122  A    between atoms: _303  and  _304
REMARK  123  A    between atoms: _303  and  _306
REMARK  124  A    between atoms: _306  and  _307
REMARK  125  A    between atoms: _312  and  _314
REMARK  126  A    between atoms: _314  and  _315
REMARK  127  A    between atoms: _314  and  _317
REMARK  128  A    between atoms: _317  and  _318
REMARK  129  A    between atoms: _321  and  _323
REMARK  130  A    between atoms: _323  and  _324
REMARK  131  A    between atoms: _327  and  _329
REMARK  132  A    between atoms: _329  and  _330
REMARK  133  A    between atoms: _332  and  _334
REMARK  134  A    between atoms: _334  and  _335
REMARK  135  A    between atoms: _334  and  _337
REMARK  136  A    between atoms: _337  and  _338
REMARK  137  A    between atoms: _341  and  _343
REMARK  138  A    between atoms: _343  and  _344
REMARK  139  A    between atoms: _343  and  _346
REMARK  140  A    between atoms: _346  and  _347
REMARK  141  A    between atoms: _353  and  _354
REMARK  142  A    between atoms: _359  and  _361
REMARK  143  A    between atoms: _361  and  _362
REMARK  144  A    between atoms: _361  and  _364
REMARK  145  A    between atoms: _364  and  _365
REMARK  146  A    between atoms: _365  and  _366
REMARK  147  A    between atoms: _366  and  _367
REMARK  148  A    between atoms: _376  and  _378
REMARK  149  A    between atoms: _378  and  _379
REMARK  150  A    between atoms: _378  and  _381
REMARK  151  A    between atoms: _381  and  _382
REMARK  152  A    between atoms: _384  and  _386
REMARK  153  A    between atoms: _386  and  _387
REMARK  154  A    between atoms: _389  and  _391
REMARK  155  A    between atoms: _391  and  _392
REMARK  156  A    between atoms: _391  and  _394
REMARK  157  A    between atoms: _394  and  _395
REMARK  158  A    between atoms: _398  and  _400
REMARK  159  A    between atoms: _400  and  _401
REMARK  160  A    between atoms: _404  and  _406
REMARK  161  A    between atoms: _406  and  _407
REMARK  162  A    between atoms: _406  and  _409
REMARK  163  A    between atoms: _409  and  _410
REMARK  164  A    between atoms: _413  and  _415
REMARK  165  A    between atoms: _415  and  _416
REMARK  166  A    between atoms: _415  and  _418
REMARK  167  A    between atoms: _420  and  _422
REMARK  168  A    between atoms: _422  and  _423
REMARK  169  A    between atoms: _422  and  _425
REMARK  170  A    between atoms: _425  and  _426
REMARK  171  A    between atoms: _426  and  _427
REMARK  172  A    between atoms: _427  and  _428
REMARK  173  A    between atoms: _437  and  _439
REMARK  174  A    between atoms: _439  and  _440
REMARK  175  A    between atoms: _443  and  _445
REMARK  176  A    between atoms: _445  and  _446
REMARK  177  A    between atoms: _445  and  _448
REMARK  178  A    between atoms: _448  and  _449
REMARK  179  A    between atoms: _449  and  _450
REMARK  180  A    between atoms: _455  and  _457
REMARK  181  A    between atoms: _457  and  _458
REMARK  182  A    between atoms: _457  and  _460
REMARK  183  A    between atoms: _460  and  _461
REMARK  184  A    between atoms: _464  and  _466
REMARK  185  A    between atoms: _466  and  _467
REMARK  186  A    between atoms: _466  and  _469
REMARK  187  A    between atoms: _469  and  _470
REMARK  188  A    between atoms: _470  and  _471
REMARK  189  A    between atoms: _471  and  _472
REMARK  190  A    between atoms: _481  and  _483
REMARK  191  A    between atoms: _483  and  _484
REMARK  192  A    between atoms: _486  and  _488
REMARK  193  A    between atoms: _488  and  _489
REMARK  194  A    between atoms: _488  and  _491
REMARK  195  A    between atoms: _491  and  _492
REMARK  196  A    between atoms: _495  and  _497
REMARK  197  A    between atoms: _497  and  _498
REMARK  198  A    between atoms: _500  and  _502
REMARK  199  A    between atoms: _502  and  _503
REMARK  200  A    between atoms: _505  and  _507
REMARK  201  A    between atoms: _507  and  _508
REMARK  202  A    between atoms: _507  and  _510
REMARK  203  A    between atoms: _510  and  _511
REMARK  204  A    between atoms: _516  and  _518
REMARK  205  A    between atoms: _518  and  _519
REMARK  206  A    between atoms: _521  and  _523
REMARK  207  A    between atoms: _523  and  _524
REMARK  208  A    between atoms: _523  and  _526
REMARK  209  A    between atoms: _526  and  _527
REMARK  210  A    between atoms: _529  and  _531
REMARK  211  A    between atoms: _531  and  _532
REMARK  212  A    between atoms: _531  and  _534
REMARK  213  A    between atoms: _534  and  _535
REMARK  214  A    between atoms: _537  and  _539
REMARK  215  A    between atoms: _539  and  _540
REMARK  216  A    between atoms: _542  and  _544
REMARK  217  A    between atoms: _544  and  _545
REMARK  218  A    between atoms: _547  and  _549
REMARK  219  A    between atoms: _549  and  _550
REMARK  220  A    between atoms: _549  and  _552
REMARK  221  A    between atoms: _552  and  _553
REMARK                            x       y       z     vdW  Elec       q    Type
REMARK                         _______ _______ _______ _____ _____    ______ ____
ROOT
ATOM      1  O   HOH     1       9.626  -0.491  38.073  0.00  0.00    +0.000 OA
ENDROOT
TORSDOF 0
REMARK  Name = ../refined-set-2016/2py4/2py4_pocket.pdb
REMARK  221 active torsions:
REMARK  status: ('A' for Active; 'I' for Inactive)
REMARK    1  A    between atoms: _1  and  _3
REMARK    2  A    between atoms: _3  and  _4
REMARK    3  A    between atoms: _3  and  _6
REMARK    4  A    between atoms: _6  and  _7
REMARK    5  A    between atoms: _10  and  _12
REMARK    6  A    between atoms: _12  and  _13
REMARK    7  A    between atoms: _12  and  _15
REMARK    8  A    between atoms: _15  and  _16
REMARK    9  A    between atoms: _19  and  _21
REMARK   10  A    between atoms: _21  and  _22
REMARK   11  A    between atoms: _21  and  _24
REMARK   12  A    between atoms: _27  and  _29
REMARK   13  A    between atoms: _29  and  _30
REMARK   14  A    between atoms: _29  and  _32
REMARK   15  A    between atoms: _32  and  _33
REMARK   16  A    between atoms: _36  and  _38
REMARK   17  A    between atoms: _38  and  _39
REMARK   18  A    between atoms: _38  and  _41
REMARK   19  A    between atoms: _44  and  _46
REMARK   20  A    between atoms: _46  and  _47
REMARK   21  A    between atoms: _46  and  _49
REMARK   22  A    between atoms: _52  and  _54
REMARK   23  A    between atoms: _54  and  _55
REMARK   24  A    between atoms: _54  and  _57
REMARK   25  A    between atoms: _60  and  _62
REMARK   26  A    between atoms: _62  and  _63
REMARK   27  A    between atoms: _62  and  _65
REMARK   28  A    between atoms: _68  and  _70
REMARK   29  A    between atoms: _70  and  _71
REMARK   30  A    between atoms: _73  and  _75
REMARK   31  A    between atoms: _75  and  _76
REMARK   32  A    between atoms: _75  and  _78
REMARK   33  A    between atoms: _78  and  _79
REMARK   34  A    between atoms: _82  and  _84
REMARK   35  A    between atoms: _84  and  _85
REMARK   36  A    between atoms: _84  and  _87
REMARK   37  A    between atoms: _90  and  _92
REMARK   38  A    between atoms: _92  and  _93
REMARK   39  A    between atoms: _92  and  _95
REMARK   40  A    between atoms: _95  and  _96
REMARK   41  A    between atoms: _101  and  _103
REMARK   42  A    between atoms: _103  and  _104
REMARK   43  A    between atoms: _103  and  _106
REMARK   44  A    between atoms: _106  and  _107
REMARK   45  A    between atoms: _110  and  _112
REMARK   46  A    between atoms: _112  and  _113
REMARK   47  A    between atoms: _112  and  _115
REMARK   48  A    between atoms: _118  and  _120
REMARK   49  A    between atoms: _120  and  _121
REMARK   50  A    between atoms: _120  and  _123
REMARK   51  A    between atoms: _123  and  _124
REMARK   52  A    between atoms: _129  and  _131
REMARK   53  A    between atoms: _131  and  _132
REMARK   54  A    between atoms: _131  and  _134
REMARK   55  A    between atoms: _134  and  _135
REMARK   56  A    between atoms: _138  and  _139
REMARK   57  A    between atoms: _144  and  _146
REMARK   58  A    between atoms: _146  and  _147
REMARK   59  A    between atoms: _149  and  _151
REMARK   60  A    between atoms: _151  and  _152
REMARK   61  A    between atoms: _151  and  _154
REMARK   62  A    between atoms: _154  and  _155
REMARK   63  A    between atoms: _158  and  _160
REMARK   64  A    between atoms: _160  and  _161
REMARK   65  A    between atoms: _160  and  _163
REMARK   66  A    between atoms: _163  and  _164
REMARK   67  A    between atoms: _167  and  _169
REMARK   68  A    between atoms: _169  and  _170
REMARK   69  A    between atoms: _169  and  _172
REMARK   70  A    between atoms: _172  and  _173
REMARK   71  A    between atoms: _176  and  _178
REMARK   72  A    between atoms: _178  and  _179
REMARK   73  A    between atoms: _182  and  _184
REMARK   74  A    between atoms: _184  and  _185
REMARK   75  A    between atoms: _187  and  _189
REMARK   76  A    between atoms: _189  and  _190
REMARK   77  A    between atoms: _189  and  _192
REMARK   78  A    between atoms: _192  and  _193
REMARK   79  A    between atoms: _198  and  _199
REMARK   80  A    between atoms: _201  and  _203
REMARK   81  A    between atoms: _203  and  _204
REMARK   82  A    between atoms: _203  and  _206
REMARK   83  A    between atoms: _206  and  _207
REMARK   84  A    between atoms: _207  and  _208
REMARK   85  A    between atoms: _208  and  _209
REMARK   86  A    between atoms: _218  and  _220
REMARK   87  A    between atoms: _220  and  _221
REMARK   88  A    between atoms: _223  and  _225
REMARK   89  A    between atoms: _225  and  _226
REMARK   90  A    between atoms: _225  and  _228
REMARK   91  A    between atoms: _228  and  _229
REMARK   92  A    between atoms: _229  and  _230
REMARK   93  A    between atoms: _233  and  _235
REMARK   94  A    between atoms: _235  and  _236
REMARK   95  A    between atoms: _235  and  _238
REMARK   96  A    between atoms: _238  and  _239
REMARK   97  A    between atoms: _242  and  _244
REMARK   98  A    between atoms: _244  and  _245
REMARK   99  A    between atoms: _244  and  _247
REMARK  100  A    between atoms: _247  and  _248
REMARK  101  A    between atoms: _248  and  _249
REMARK  102  A    between atoms: _249  and  _250
REMARK  103  A    between atoms: _250  and  _251
REMARK  104  A    between atoms: _255  and  _257
REMARK  105  A    between atoms: _257  and  _258
REMARK  106  A    between atoms: _257  and  _260
REMARK  107  A    between atoms: _263  and  _265
REMARK  108  A    between atoms: _265  and  _266
REMARK  109  A    between atoms: _269  and  _271
REMARK  110  A    between atoms: _271  and  _272
REMARK  111  A    between atoms: _271  and  _274
REMARK  112  A    between atoms: _274  and  _275
REMARK  113  A    between atoms: _278  and  _280
REMARK  114  A    between atoms: _280  and  _281
REMARK  115  A    between atoms: _280  and  _283
REMARK  116  A    between atoms: _283  and  _284
REMARK  117  A    between atoms: _284  and  _285
REMARK  118  A    between atoms: _285  and  _286
REMARK  119  A    between atoms: _295  and  _297
REMARK  120  A    between atoms: _297  and  _298
REMARK  121  A    between atoms: _301  and  _303
REMARK  122  A    between atoms: _303  and  _304
REMARK  123  A    between atoms: _303  and  _306
REMARK  124  A    between atoms: _306  and  _307
REMARK  125  A    between atoms: _312  and  _314
REMARK  126  A    between atoms: _314  and  _315
REMARK  127  A    between atoms: _314  and  _317
REMARK  128  A    between atoms: _317  and  _318
REMARK  129  A    between atoms: _321  and  _323
REMARK  130  A    between atoms: _323  and  _324
REMARK  131  A    between atoms: _327  and  _329
REMARK  132  A    between atoms: _329  and  _330
REMARK  133  A    between atoms: _332  and  _334
REMARK  134  A    between atoms: _334  and  _335
REMARK  135  A    between atoms: _334  and  _337
REMARK  136  A    between atoms: _337  and  _338
REMARK  137  A    between atoms: _341  and  _343
REMARK  138  A    between atoms: _343  and  _344
REMARK  139  A    between atoms: _343  and  _346
REMARK  140  A    between atoms: _346  and  _347
REMARK  141  A    between atoms: _353  and  _354
REMARK  142  A    between atoms: _359  and  _361
REMARK  143  A    between atoms: _361  and  _362
REMARK  144  A    between atoms: _361  and  _364
REMARK  145  A    between atoms: _364  and  _365
REMARK  146  A    between atoms: _365  and  _366
REMARK  147  A    between atoms: _366  and  _367
REMARK  148  A    between atoms: _376  and  _378
REMARK  149  A    between atoms: _378  and  _379
REMARK  150  A    between atoms: _378  and  _381
REMARK  151  A    between atoms: _381  and  _382
REMARK  152  A    between atoms: _384  and  _386
REMARK  153  A    between atoms: _386  and  _387
REMARK  154  A    between atoms: _389  and  _391
REMARK  155  A    between atoms: _391  and  _392
REMARK  156  A    between atoms: _391  and  _394
REMARK  157  A    between atoms: _394  and  _395
REMARK  158  A    between atoms: _398  and  _400
REMARK  159  A    between atoms: _400  and  _401
REMARK  160  A    between atoms: _404  and  _406
REMARK  161  A    between atoms: _406  and  _407
REMARK  162  A    between atoms: _406  and  _409
REMARK  163  A    between atoms: _409  and  _410
REMARK  164  A    between atoms: _413  and  _415
REMARK  165  A    between atoms: _415  and  _416
REMARK  166  A    between atoms: _415  and  _418
REMARK  167  A    between atoms: _420  and  _422
REMARK  168  A    between atoms: _422  and  _423
REMARK  169  A    between atoms: _422  and  _425
REMARK  170  A    between atoms: _425  and  _426
REMARK  171  A    between atoms: _426  and  _427
REMARK  172  A    between atoms: _427  and  _428
REMARK  173  A    between atoms: _437  and  _439
REMARK  174  A    between atoms: _439  and  _440
REMARK  175  A    between atoms: _443  and  _445
REMARK  176  A    between atoms: _445  and  _446
REMARK  177  A    between atoms: _445  and  _448
REMARK  178  A    between atoms: _448  and  _449
REMARK  179  A    between atoms: _449  and  _450
REMARK  180  A    between atoms: _455  and  _457
REMARK  181  A    between atoms: _457  and  _458
REMARK  182  A    between atoms: _457  and  _460
REMARK  183  A    between atoms: _460  and  _461
REMARK  184  A    between atoms: _464  and  _466
REMARK  185  A    between atoms: _466  and  _467
REMARK  186  A    between atoms: _466  and  _469
REMARK  187  A    between atoms: _469  and  _470
REMARK  188  A    between atoms: _470  and  _471
REMARK  189  A    between atoms: _471  and  _472
REMARK  190  A    between atoms: _481  and  _483
REMARK  191  A    between atoms: _483  and  _484
REMARK  192  A    between atoms: _486  and  _488
REMARK  193  A    between atoms: _488  and  _489
REMARK  194  A    between atoms: _488  and  _491
REMARK  195  A    between atoms: _491  and  _492
REMARK  196  A    between atoms: _495  and  _497
REMARK  197  A    between atoms: _497  and  _498
REMARK  198  A    between atoms: _500  and  _502
REMARK  199  A    between atoms: _502  and  _503
REMARK  200  A    between atoms: _505  and  _507
REMARK  201  A    between atoms: _507  and  _508
REMARK  202  A    between atoms: _507  and  _510
REMARK  203  A    between atoms: _510  and  _511
REMARK  204  A    between atoms: _516  and  _518
REMARK  205  A    between atoms: _518  and  _519
REMARK  206  A    between atoms: _521  and  _523
REMARK  207  A    between atoms: _523  and  _524
REMARK  208  A    between atoms: _523  and  _526
REMARK  209  A    between atoms: _526  and  _527
REMARK  210  A    between atoms: _529  and  _531
REMARK  211  A    between atoms: _531  and  _532
REMARK  212  A    between atoms: _531  and  _534
REMARK  213  A    between atoms: _534  and  _535
REMARK  214  A    between atoms: _537  and  _539
REMARK  215  A    between atoms: _539  and  _540
REMARK  216  A    between atoms: _542  and  _544
REMARK  217  A    between atoms: _544  and  _545
REMARK  218  A    between atoms: _547  and  _549
REMARK  219  A    between atoms: _549  and  _550
REMARK  220  A    between atoms: _549  and  _552
REMARK  221  A    between atoms: _552  and  _553
REMARK                            x       y       z     vdW  Elec       q    Type
REMARK                         _______ _______ _______ _____ _____    ______ ____
ROOT
ATOM      1  O   HOH     1       9.708  -1.866  42.149  0.00  0.00    +0.000 OA
ENDROOT
TORSDOF 0
