REMARK  Name = ../refined-set-2016/3n4b/3n4b_pocket.pdb
REMARK  159 active torsions:
REMARK  status: ('A' for Active; 'I' for Inactive)
REMARK    1  A    between atoms: _1  and  _3
REMARK    2  A    between atoms: _3  and  _4
REMARK    3  A    between atoms: _3  and  _6
REMARK    4  A    between atoms: _6  and  _7
REMARK    5  A    between atoms: _17  and  _19
REMARK    6  A    between atoms: _19  and  _20
REMARK    7  A    between atoms: _19  and  _22
REMARK    8  A    between atoms: _22  and  _23
REMARK    9  A    between atoms: _28  and  _29
REMARK   10  A    between atoms: _31  and  _33
REMARK   11  A    between atoms: _33  and  _34
REMARK   12  A    between atoms: _33  and  _36
REMARK   13  A    between atoms: _36  and  _37
REMARK   14  A    between atoms: _43  and  _45
REMARK   15  A    between atoms: _45  and  _46
REMARK   16  A    between atoms: _45  and  _48
REMARK   17  A    between atoms: _48  and  _49
REMARK   18  A    between atoms: _52  and  _53
REMARK   19  A    between atoms: _58  and  _60
REMARK   20  A    between atoms: _60  and  _61
REMARK   21  A    between atoms: _60  and  _63
REMARK   22  A    between atoms: _63  and  _64
REMARK   23  A    between atoms: _69  and  _71
REMARK   24  A    between atoms: _71  and  _72
REMARK   25  A    between atoms: _75  and  _77
REMARK   26  A    between atoms: _77  and  _78
REMARK   27  A    between atoms: _77  and  _80
REMARK   28  A    between atoms: _80  and  _81
REMARK   29  A    between atoms: _86  and  _88
REMARK   30  A    between atoms: _88  and  _89
REMARK   31  A    between atoms: _88  and  _91
REMARK   32  A    between atoms: _91  and  _92
REMARK   33  A    between atoms: _92  and  _93
REMARK   34  A    between atoms: _96  and  _98
REMARK   35  A    between atoms: _98  and  _99
REMARK   36  A    between atoms: _98  and  _101
REMARK   37  A    between atoms: _101  and  _102
REMARK   38  A    between atoms: _105  and  _107
REMARK   39  A    between atoms: _107  and  _108
REMARK   40  A    between atoms: _107  and  _110
REMARK   41  A    between atoms: _110  and  _111
REMARK   42  A    between atoms: _111  and  _112
REMARK   43  A    between atoms: _117  and  _119
REMARK   44  A    between atoms: _119  and  _120
REMARK   45  A    between atoms: _119  and  _122
REMARK   46  A    between atoms: _122  and  _123
REMARK   47  A    between atoms: _129  and  _131
REMARK   48  A    between atoms: _142  and  _145
REMARK   49  A    between atoms: _145  and  _146
REMARK   50  A    between atoms: _154  and  _155
REMARK   51  A    between atoms: _163  and  _165
REMARK   52  A    between atoms: _165  and  _166
REMARK   53  A    between atoms: _165  and  _168
REMARK   54  A    between atoms: _168  and  _169
REMARK   55  A    between atoms: _169  and  _170
REMARK   56  A    between atoms: _173  and  _175
REMARK   57  A    between atoms: _175  and  _176
REMARK   58  A    between atoms: _175  and  _178
REMARK   59  A    between atoms: _178  and  _179
REMARK   60  A    between atoms: _184  and  _186
REMARK   61  A    between atoms: _186  and  _187
REMARK   62  A    between atoms: _186  and  _189
REMARK   63  A    between atoms: _189  and  _190
REMARK   64  A    between atoms: _190  and  _191
REMARK   65  A    between atoms: _194  and  _196
REMARK   66  A    between atoms: _196  and  _197
REMARK   67  A    between atoms: _196  and  _199
REMARK   68  A    between atoms: _199  and  _200
REMARK   69  A    between atoms: _203  and  _205
REMARK   70  A    between atoms: _205  and  _206
REMARK   71  A    between atoms: _205  and  _208
REMARK   72  A    between atoms: _208  and  _209
REMARK   73  A    between atoms: _210  and  ZN_442
REMARK   74  A    between atoms: _214  and  _216
REMARK   75  A    between atoms: _216  and  _217
REMARK   76  A    between atoms: _216  and  _219
REMARK   77  A    between atoms: _219  and  _220
REMARK   78  A    between atoms: _223  and  _225
REMARK   79  A    between atoms: _225  and  _226
REMARK   80  A    between atoms: _225  and  _228
REMARK   81  A    between atoms: _231  and  _233
REMARK   82  A    between atoms: _233  and  _234
REMARK   83  A    between atoms: _233  and  _236
REMARK   84  A    between atoms: _236  and  _237
REMARK   85  A    between atoms: _242  and  _244
REMARK   86  A    between atoms: _244  and  _245
REMARK   87  A    between atoms: _244  and  _247
REMARK   88  A    between atoms: _247  and  _248
REMARK   89  A    between atoms: _254  and  _256
REMARK   90  A    between atoms: _256  and  _257
REMARK   91  A    between atoms: _259  and  _261
REMARK   92  A    between atoms: _261  and  _262
REMARK   93  A    between atoms: _261  and  _264
REMARK   94  A    between atoms: _267  and  _269
REMARK   95  A    between atoms: _269  and  _270
REMARK   96  A    between atoms: _269  and  _272
REMARK   97  A    between atoms: _272  and  _273
REMARK   98  A    between atoms: _273  and  _274
REMARK   99  A    between atoms: _279  and  _281
REMARK  100  A    between atoms: _281  and  _282
REMARK  101  A    between atoms: _281  and  _284
REMARK  102  A    between atoms: _284  and  _285
REMARK  103  A    between atoms: _288  and  _290
REMARK  104  A    between atoms: _290  and  _291
REMARK  105  A    between atoms: _294  and  _296
REMARK  106  A    between atoms: _296  and  _297
REMARK  107  A    between atoms: _296  and  _299
REMARK  108  A    between atoms: _302  and  _304
REMARK  109  A    between atoms: _304  and  _305
REMARK  110  A    between atoms: _304  and  _307
REMARK  111  A    between atoms: _307  and  _308
REMARK  112  A    between atoms: _311  and  _313
REMARK  113  A    between atoms: _313  and  _314
REMARK  114  A    between atoms: _316  and  _318
REMARK  115  A    between atoms: _318  and  _319
REMARK  116  A    between atoms: _318  and  _321
REMARK  117  A    between atoms: _321  and  _322
REMARK  118  A    between atoms: _324  and  _326
REMARK  119  A    between atoms: _326  and  _327
REMARK  120  A    between atoms: _326  and  _329
REMARK  121  A    between atoms: _329  and  _330
REMARK  122  A    between atoms: _333  and  _335
REMARK  123  A    between atoms: _335  and  _336
REMARK  124  A    between atoms: _335  and  _338
REMARK  125  A    between atoms: _338  and  _339
REMARK  126  A    between atoms: _342  and  _344
REMARK  127  A    between atoms: _344  and  _345
REMARK  128  A    between atoms: _344  and  _347
REMARK  129  A    between atoms: _347  and  _348
REMARK  130  A    between atoms: _352  and  _353
REMARK  131  A    between atoms: _359  and  _360
REMARK  132  A    between atoms: _365  and  _367
REMARK  133  A    between atoms: _367  and  _368
REMARK  134  A    between atoms: _367  and  _370
REMARK  135  A    between atoms: _370  and  _371
REMARK  136  A    between atoms: _374  and  _376
REMARK  137  A    between atoms: _376  and  _377
REMARK  138  A    between atoms: _376  and  _379
REMARK  139  A    between atoms: _379  and  _380
REMARK  140  A    between atoms: _383  and  _385
REMARK  141  A    between atoms: _385  and  _386
REMARK  142  A    between atoms: _385  and  _388
REMARK  143  A    between atoms: _390  and  _392
REMARK  144  A    between atoms: _392  and  _393
REMARK  145  A    between atoms: _392  and  _395
REMARK  146  A    between atoms: _398  and  _400
REMARK  147  A    between atoms: _400  and  _401
REMARK  148  A    between atoms: _400  and  _403
REMARK  149  A    between atoms: _403  and  _404
REMARK  150  A    between atoms: _414  and  _416
REMARK  151  A    between atoms: _416  and  _417
REMARK  152  A    between atoms: _416  and  _419
REMARK  153  A    between atoms: _419  and  _420
REMARK  154  A    between atoms: _425  and  _427
REMARK  155  A    between atoms: _427  and  _428
REMARK  156  A    between atoms: _427  and  _430
REMARK  157  A    between atoms: _430  and  _431
REMARK  158  A    between atoms: _431  and  _432
REMARK  159  A    between atoms: _432  and  _433
REMARK                            x       y       z     vdW  Elec       q    Type
REMARK                         _______ _______ _______ _____ _____    ______ ____
ROOT
ATOM      1  CG  TRP A   1       5.999   0.127  12.207  0.00  0.00    -0.002 A 
ATOM      2  CD2 TRP A   1       4.642  -0.314  12.153  0.00  0.00    +0.013 A 
ATOM      3  CE3 TRP A   1       4.012  -1.538  12.391  0.00  0.00    +0.001 A 
ATOM      4  CZ3 TRP A   1       2.630  -1.609  12.245  0.00  0.00    +0.000 A 
ATOM      5  CH2 TRP A   1       1.889  -0.484  11.876  0.00  0.00    +0.001 A 
ATOM      6  CZ2 TRP A   1       2.483   0.717  11.621  0.00  0.00    +0.017 A 
ATOM      7  CE2 TRP A   1       3.859   0.799  11.787  0.00  0.00    +0.056 A 
ATOM      8  NE1 TRP A   1       4.705   1.865  11.615  0.00  0.00    -0.352 N 
ATOM      9  HE1 TRP A   1       4.423   2.825  11.331  0.00  0.00    +0.166 HD
ATOM     10  CD1 TRP A   1       5.985   1.453  11.880  0.00  0.00    +0.068 A 
ENDROOT
BRANCH   1  11
ATOM     11  CB  TRP A   1       7.199  -0.709  12.552  0.00  0.00    +0.053 C 
BRANCH  11  12
ATOM     12  CA  TRP A   1       7.840  -1.383  11.332  0.00  0.00    +0.137 C 
BRANCH  12  13
ATOM     13  N   TRP A   1       8.444  -0.392  10.459  0.00  0.00    -0.239 NA
ATOM     14  H   TRP A   1       8.156   0.604  10.543  0.00  0.00    +0.142 HD
ENDBRANCH  12  13
BRANCH  12  15
ATOM     15  C   TRP A   1       6.794  -2.162  10.576  0.00  0.00    +0.224 C 
ATOM     16  O   TRP A   1       6.255  -1.697   9.570  0.00  0.00    -0.287 OA
ENDBRANCH  12  15
ENDBRANCH  11  12
ENDBRANCH   1  11
TORSDOF 4
REMARK  Name = ../refined-set-2016/3n4b/3n4b_pocket.pdb
REMARK  159 active torsions:
REMARK  status: ('A' for Active; 'I' for Inactive)
REMARK    1  A    between atoms: _1  and  _3
REMARK    2  A    between atoms: _3  and  _4
REMARK    3  A    between atoms: _3  and  _6
REMARK    4  A    between atoms: _6  and  _7
REMARK    5  A    between atoms: _17  and  _19
REMARK    6  A    between atoms: _19  and  _20
REMARK    7  A    between atoms: _19  and  _22
REMARK    8  A    between atoms: _22  and  _23
REMARK    9  A    between atoms: _28  and  _29
REMARK   10  A    between atoms: _31  and  _33
REMARK   11  A    between atoms: _33  and  _34
REMARK   12  A    between atoms: _33  and  _36
REMARK   13  A    between atoms: _36  and  _37
REMARK   14  A    between atoms: _43  and  _45
REMARK   15  A    between atoms: _45  and  _46
REMARK   16  A    between atoms: _45  and  _48
REMARK   17  A    between atoms: _48  and  _49
REMARK   18  A    between atoms: _52  and  _53
REMARK   19  A    between atoms: _58  and  _60
REMARK   20  A    between atoms: _60  and  _61
REMARK   21  A    between atoms: _60  and  _63
REMARK   22  A    between atoms: _63  and  _64
REMARK   23  A    between atoms: _69  and  _71
REMARK   24  A    between atoms: _71  and  _72
REMARK   25  A    between atoms: _75  and  _77
REMARK   26  A    between atoms: _77  and  _78
REMARK   27  A    between atoms: _77  and  _80
REMARK   28  A    between atoms: _80  and  _81
REMARK   29  A    between atoms: _86  and  _88
REMARK   30  A    between atoms: _88  and  _89
REMARK   31  A    between atoms: _88  and  _91
REMARK   32  A    between atoms: _91  and  _92
REMARK   33  A    between atoms: _92  and  _93
REMARK   34  A    between atoms: _96  and  _98
REMARK   35  A    between atoms: _98  and  _99
REMARK   36  A    between atoms: _98  and  _101
REMARK   37  A    between atoms: _101  and  _102
REMARK   38  A    between atoms: _105  and  _107
REMARK   39  A    between atoms: _107  and  _108
REMARK   40  A    between atoms: _107  and  _110
REMARK   41  A    between atoms: _110  and  _111
REMARK   42  A    between atoms: _111  and  _112
REMARK   43  A    between atoms: _117  and  _119
REMARK   44  A    between atoms: _119  and  _120
REMARK   45  A    between atoms: _119  and  _122
REMARK   46  A    between atoms: _122  and  _123
REMARK   47  A    between atoms: _129  and  _131
REMARK   48  A    between atoms: _142  and  _145
REMARK   49  A    between atoms: _145  and  _146
REMARK   50  A    between atoms: _154  and  _155
REMARK   51  A    between atoms: _163  and  _165
REMARK   52  A    between atoms: _165  and  _166
REMARK   53  A    between atoms: _165  and  _168
REMARK   54  A    between atoms: _168  and  _169
REMARK   55  A    between atoms: _169  and  _170
REMARK   56  A    between atoms: _173  and  _175
REMARK   57  A    between atoms: _175  and  _176
REMARK   58  A    between atoms: _175  and  _178
REMARK   59  A    between atoms: _178  and  _179
REMARK   60  A    between atoms: _184  and  _186
REMARK   61  A    between atoms: _186  and  _187
REMARK   62  A    between atoms: _186  and  _189
REMARK   63  A    between atoms: _189  and  _190
REMARK   64  A    between atoms: _190  and  _191
REMARK   65  A    between atoms: _194  and  _196
REMARK   66  A    between atoms: _196  and  _197
REMARK   67  A    between atoms: _196  and  _199
REMARK   68  A    between atoms: _199  and  _200
REMARK   69  A    between atoms: _203  and  _205
REMARK   70  A    between atoms: _205  and  _206
REMARK   71  A    between atoms: _205  and  _208
REMARK   72  A    between atoms: _208  and  _209
REMARK   73  A    between atoms: _210  and  ZN_442
REMARK   74  A    between atoms: _214  and  _216
REMARK   75  A    between atoms: _216  and  _217
REMARK   76  A    between atoms: _216  and  _219
REMARK   77  A    between atoms: _219  and  _220
REMARK   78  A    between atoms: _223  and  _225
REMARK   79  A    between atoms: _225  and  _226
REMARK   80  A    between atoms: _225  and  _228
REMARK   81  A    between atoms: _231  and  _233
REMARK   82  A    between atoms: _233  and  _234
REMARK   83  A    between atoms: _233  and  _236
REMARK   84  A    between atoms: _236  and  _237
REMARK   85  A    between atoms: _242  and  _244
REMARK   86  A    between atoms: _244  and  _245
REMARK   87  A    between atoms: _244  and  _247
REMARK   88  A    between atoms: _247  and  _248
REMARK   89  A    between atoms: _254  and  _256
REMARK   90  A    between atoms: _256  and  _257
REMARK   91  A    between atoms: _259  and  _261
REMARK   92  A    between atoms: _261  and  _262
REMARK   93  A    between atoms: _261  and  _264
REMARK   94  A    between atoms: _267  and  _269
REMARK   95  A    between atoms: _269  and  _270
REMARK   96  A    between atoms: _269  and  _272
REMARK   97  A    between atoms: _272  and  _273
REMARK   98  A    between atoms: _273  and  _274
REMARK   99  A    between atoms: _279  and  _281
REMARK  100  A    between atoms: _281  and  _282
REMARK  101  A    between atoms: _281  and  _284
REMARK  102  A    between atoms: _284  and  _285
REMARK  103  A    between atoms: _288  and  _290
REMARK  104  A    between atoms: _290  and  _291
REMARK  105  A    between atoms: _294  and  _296
REMARK  106  A    between atoms: _296  and  _297
REMARK  107  A    between atoms: _296  and  _299
REMARK  108  A    between atoms: _302  and  _304
REMARK  109  A    between atoms: _304  and  _305
REMARK  110  A    between atoms: _304  and  _307
REMARK  111  A    between atoms: _307  and  _308
REMARK  112  A    between atoms: _311  and  _313
REMARK  113  A    between atoms: _313  and  _314
REMARK  114  A    between atoms: _316  and  _318
REMARK  115  A    between atoms: _318  and  _319
REMARK  116  A    between atoms: _318  and  _321
REMARK  117  A    between atoms: _321  and  _322
REMARK  118  A    between atoms: _324  and  _326
REMARK  119  A    between atoms: _326  and  _327
REMARK  120  A    between atoms: _326  and  _329
REMARK  121  A    between atoms: _329  and  _330
REMARK  122  A    between atoms: _333  and  _335
REMARK  123  A    between atoms: _335  and  _336
REMARK  124  A    between atoms: _335  and  _338
REMARK  125  A    between atoms: _338  and  _339
REMARK  126  A    between atoms: _342  and  _344
REMARK  127  A    between atoms: _344  and  _345
REMARK  128  A    between atoms: _344  and  _347
REMARK  129  A    between atoms: _347  and  _348
REMARK  130  A    between atoms: _352  and  _353
REMARK  131  A    between atoms: _359  and  _360
REMARK  132  A    between atoms: _365  and  _367
REMARK  133  A    between atoms: _367  and  _368
REMARK  134  A    between atoms: _367  and  _370
REMARK  135  A    between atoms: _370  and  _371
REMARK  136  A    between atoms: _374  and  _376
REMARK  137  A    between atoms: _376  and  _377
REMARK  138  A    between atoms: _376  and  _379
REMARK  139  A    between atoms: _379  and  _380
REMARK  140  A    between atoms: _383  and  _385
REMARK  141  A    between atoms: _385  and  _386
REMARK  142  A    between atoms: _385  and  _388
REMARK  143  A    between atoms: _390  and  _392
REMARK  144  A    between atoms: _392  and  _393
REMARK  145  A    between atoms: _392  and  _395
REMARK  146  A    between atoms: _398  and  _400
REMARK  147  A    between atoms: _400  and  _401
REMARK  148  A    between atoms: _400  and  _403
REMARK  149  A    between atoms: _403  and  _404
REMARK  150  A    between atoms: _414  and  _416
REMARK  151  A    between atoms: _416  and  _417
REMARK  152  A    between atoms: _416  and  _419
REMARK  153  A    between atoms: _419  and  _420
REMARK  154  A    between atoms: _425  and  _427
REMARK  155  A    between atoms: _427  and  _428
REMARK  156  A    between atoms: _427  and  _430
REMARK  157  A    between atoms: _430  and  _431
REMARK  158  A    between atoms: _431  and  _432
REMARK  159  A    between atoms: _432  and  _433
REMARK                            x       y       z     vdW  Elec       q    Type
REMARK                         _______ _______ _______ _____ _____    ______ ____
ROOT
ATOM      1  CG  TYR A   1       2.100  -6.924  11.827  0.00  0.00    -0.020 A 
ATOM      2  CD2 TYR A   1       1.689  -6.926  13.159  0.00  0.00    -0.001 A 
ATOM      3  CE2 TYR A   1       0.851  -5.934  13.650  0.00  0.00    +0.036 A 
ATOM      4  CZ  TYR A   1       0.383  -4.953  12.787  0.00  0.00    +0.134 A 
ATOM      5  CE1 TYR A   1       0.792  -4.932  11.451  0.00  0.00    +0.036 A 
ATOM      6  CD1 TYR A   1       1.629  -5.918  10.988  0.00  0.00    -0.001 A 
ENDROOT
BRANCH   4   7
ATOM      7  OH  TYR A   1      -0.441  -3.971  13.282  0.00  0.00    -0.506 OA
ATOM      8  HH  TYR A   1      -0.624  -4.147  14.239  0.00  0.00    +0.292 HD
ENDBRANCH   4   7
BRANCH   1   9
ATOM      9  CB  TYR A   1       3.029  -8.001  11.308  0.00  0.00    +0.051 C 
BRANCH   9  10
ATOM     10  CA  TYR A   1       4.511  -7.680  11.508  0.00  0.00    +0.137 C 
BRANCH  10  11
ATOM     11  N   TYR A   1       4.879  -6.510  10.738  0.00  0.00    -0.239 NA
ATOM     12  H   TYR A   1       4.938  -6.571   9.702  0.00  0.00    +0.142 HD
ENDBRANCH  10  11
BRANCH  10  13
ATOM     13  C   TYR A   1       5.359  -8.898  11.166  0.00  0.00    +0.224 C 
ATOM     14  O   TYR A   1       5.019 -10.004  11.541  0.00  0.00    -0.287 OA
ENDBRANCH  10  13
ENDBRANCH   9  10
ENDBRANCH   1   9
TORSDOF 5
REMARK  Name = ../refined-set-2016/3n4b/3n4b_pocket.pdb
REMARK  159 active torsions:
REMARK  status: ('A' for Active; 'I' for Inactive)
REMARK    1  A    between atoms: _1  and  _3
REMARK    2  A    between atoms: _3  and  _4
REMARK    3  A    between atoms: _3  and  _6
REMARK    4  A    between atoms: _6  and  _7
REMARK    5  A    between atoms: _17  and  _19
REMARK    6  A    between atoms: _19  and  _20
REMARK    7  A    between atoms: _19  and  _22
REMARK    8  A    between atoms: _22  and  _23
REMARK    9  A    between atoms: _28  and  _29
REMARK   10  A    between atoms: _31  and  _33
REMARK   11  A    between atoms: _33  and  _34
REMARK   12  A    between atoms: _33  and  _36
REMARK   13  A    between atoms: _36  and  _37
REMARK   14  A    between atoms: _43  and  _45
REMARK   15  A    between atoms: _45  and  _46
REMARK   16  A    between atoms: _45  and  _48
REMARK   17  A    between atoms: _48  and  _49
REMARK   18  A    between atoms: _52  and  _53
REMARK   19  A    between atoms: _58  and  _60
REMARK   20  A    between atoms: _60  and  _61
REMARK   21  A    between atoms: _60  and  _63
REMARK   22  A    between atoms: _63  and  _64
REMARK   23  A    between atoms: _69  and  _71
REMARK   24  A    between atoms: _71  and  _72
REMARK   25  A    between atoms: _75  and  _77
REMARK   26  A    between atoms: _77  and  _78
REMARK   27  A    between atoms: _77  and  _80
REMARK   28  A    between atoms: _80  and  _81
REMARK   29  A    between atoms: _86  and  _88
REMARK   30  A    between atoms: _88  and  _89
REMARK   31  A    between atoms: _88  and  _91
REMARK   32  A    between atoms: _91  and  _92
REMARK   33  A    between atoms: _92  and  _93
REMARK   34  A    between atoms: _96  and  _98
REMARK   35  A    between atoms: _98  and  _99
REMARK   36  A    between atoms: _98  and  _101
REMARK   37  A    between atoms: _101  and  _102
REMARK   38  A    between atoms: _105  and  _107
REMARK   39  A    between atoms: _107  and  _108
REMARK   40  A    between atoms: _107  and  _110
REMARK   41  A    between atoms: _110  and  _111
REMARK   42  A    between atoms: _111  and  _112
REMARK   43  A    between atoms: _117  and  _119
REMARK   44  A    between atoms: _119  and  _120
REMARK   45  A    between atoms: _119  and  _122
REMARK   46  A    between atoms: _122  and  _123
REMARK   47  A    between atoms: _129  and  _131
REMARK   48  A    between atoms: _142  and  _145
REMARK   49  A    between atoms: _145  and  _146
REMARK   50  A    between atoms: _154  and  _155
REMARK   51  A    between atoms: _163  and  _165
REMARK   52  A    between atoms: _165  and  _166
REMARK   53  A    between atoms: _165  and  _168
REMARK   54  A    between atoms: _168  and  _169
REMARK   55  A    between atoms: _169  and  _170
REMARK   56  A    between atoms: _173  and  _175
REMARK   57  A    between atoms: _175  and  _176
REMARK   58  A    between atoms: _175  and  _178
REMARK   59  A    between atoms: _178  and  _179
REMARK   60  A    between atoms: _184  and  _186
REMARK   61  A    between atoms: _186  and  _187
REMARK   62  A    between atoms: _186  and  _189
REMARK   63  A    between atoms: _189  and  _190
REMARK   64  A    between atoms: _190  and  _191
REMARK   65  A    between atoms: _194  and  _196
REMARK   66  A    between atoms: _196  and  _197
REMARK   67  A    between atoms: _196  and  _199
REMARK   68  A    between atoms: _199  and  _200
REMARK   69  A    between atoms: _203  and  _205
REMARK   70  A    between atoms: _205  and  _206
REMARK   71  A    between atoms: _205  and  _208
REMARK   72  A    between atoms: _208  and  _209
REMARK   73  A    between atoms: _210  and  ZN_442
REMARK   74  A    between atoms: _214  and  _216
REMARK   75  A    between atoms: _216  and  _217
REMARK   76  A    between atoms: _216  and  _219
REMARK   77  A    between atoms: _219  and  _220
REMARK   78  A    between atoms: _223  and  _225
REMARK   79  A    between atoms: _225  and  _226
REMARK   80  A    between atoms: _225  and  _228
REMARK   81  A    between atoms: _231  and  _233
REMARK   82  A    between atoms: _233  and  _234
REMARK   83  A    between atoms: _233  and  _236
REMARK   84  A    between atoms: _236  and  _237
REMARK   85  A    between atoms: _242  and  _244
REMARK   86  A    between atoms: _244  and  _245
REMARK   87  A    between atoms: _244  and  _247
REMARK   88  A    between atoms: _247  and  _248
REMARK   89  A    between atoms: _254  and  _256
REMARK   90  A    between atoms: _256  and  _257
REMARK   91  A    between atoms: _259  and  _261
REMARK   92  A    between atoms: _261  and  _262
REMARK   93  A    between atoms: _261  and  _264
REMARK   94  A    between atoms: _267  and  _269
REMARK   95  A    between atoms: _269  and  _270
REMARK   96  A    between atoms: _269  and  _272
REMARK   97  A    between atoms: _272  and  _273
REMARK   98  A    between atoms: _273  and  _274
REMARK   99  A    between atoms: _279  and  _281
REMARK  100  A    between atoms: _281  and  _282
REMARK  101  A    between atoms: _281  and  _284
REMARK  102  A    between atoms: _284  and  _285
REMARK  103  A    between atoms: _288  and  _290
REMARK  104  A    between atoms: _290  and  _291
REMARK  105  A    between atoms: _294  and  _296
REMARK  106  A    between atoms: _296  and  _297
REMARK  107  A    between atoms: _296  and  _299
REMARK  108  A    between atoms: _302  and  _304
REMARK  109  A    between atoms: _304  and  _305
REMARK  110  A    between atoms: _304  and  _307
REMARK  111  A    between atoms: _307  and  _308
REMARK  112  A    between atoms: _311  and  _313
REMARK  113  A    between atoms: _313  and  _314
REMARK  114  A    between atoms: _316  and  _318
REMARK  115  A    between atoms: _318  and  _319
REMARK  116  A    between atoms: _318  and  _321
REMARK  117  A    between atoms: _321  and  _322
REMARK  118  A    between atoms: _324  and  _326
REMARK  119  A    between atoms: _326  and  _327
REMARK  120  A    between atoms: _326  and  _329
REMARK  121  A    between atoms: _329  and  _330
REMARK  122  A    between atoms: _333  and  _335
REMARK  123  A    between atoms: _335  and  _336
REMARK  124  A    between atoms: _335  and  _338
REMARK  125  A    between atoms: _338  and  _339
REMARK  126  A    between atoms: _342  and  _344
REMARK  127  A    between atoms: _344  and  _345
REMARK  128  A    between atoms: _344  and  _347
REMARK  129  A    between atoms: _347  and  _348
REMARK  130  A    between atoms: _352  and  _353
REMARK  131  A    between atoms: _359  and  _360
REMARK  132  A    between atoms: _365  and  _367
REMARK  133  A    between atoms: _367  and  _368
REMARK  134  A    between atoms: _367  and  _370
REMARK  135  A    between atoms: _370  and  _371
REMARK  136  A    between atoms: _374  and  _376
REMARK  137  A    between atoms: _376  and  _377
REMARK  138  A    between atoms: _376  and  _379
REMARK  139  A    between atoms: _379  and  _380
REMARK  140  A    between atoms: _383  and  _385
REMARK  141  A    between atoms: _385  and  _386
REMARK  142  A    between atoms: _385  and  _388
REMARK  143  A    between atoms: _390  and  _392
REMARK  144  A    between atoms: _392  and  _393
REMARK  145  A    between atoms: _392  and  _395
REMARK  146  A    between atoms: _398  and  _400
REMARK  147  A    between atoms: _400  and  _401
REMARK  148  A    between atoms: _400  and  _403
REMARK  149  A    between atoms: _403  and  _404
REMARK  150  A    between atoms: _414  and  _416
REMARK  151  A    between atoms: _416  and  _417
REMARK  152  A    between atoms: _416  and  _419
REMARK  153  A    between atoms: _419  and  _420
REMARK  154  A    between atoms: _425  and  _427
REMARK  155  A    between atoms: _427  and  _428
REMARK  156  A    between atoms: _427  and  _430
REMARK  157  A    between atoms: _430  and  _431
REMARK  158  A    between atoms: _431  and  _432
REMARK  159  A    between atoms: _432  and  _433
REMARK                            x       y       z     vdW  Elec       q    Type
REMARK                         _______ _______ _______ _____ _____    ______ ____
ROOT
ATOM      1  CB  PHE A   1       7.500   3.268  19.158  0.00  0.00    +0.051 C 
ENDROOT
BRANCH   1   2
ATOM      2  CG  PHE A   1       7.442   3.660  17.697  0.00  0.00    -0.020 A 
ATOM      3  CD2 PHE A   1       7.077   4.959  17.334  0.00  0.00    -0.004 A 
ATOM      4  CE2 PHE A   1       7.062   5.328  16.010  0.00  0.00    -0.000 A 
ATOM      5  CZ  PHE A   1       7.432   4.419  15.030  0.00  0.00    -0.000 A 
ATOM      6  CE1 PHE A   1       7.796   3.137  15.368  0.00  0.00    -0.000 A 
ATOM      7  CD1 PHE A   1       7.803   2.762  16.709  0.00  0.00    -0.004 A 
ENDBRANCH   1   2
BRANCH   1   8
ATOM      8  CA  PHE A   1       8.837   3.652  19.817  0.00  0.00    +0.137 C 
BRANCH   8   9
ATOM      9  N   PHE A   1       9.973   3.106  19.048  0.00  0.00    -0.239 NA
ATOM     10  H   PHE A   1      10.162   2.084  19.087  0.00  0.00    +0.142 HD
ENDBRANCH   8   9
BRANCH   8  11
ATOM     11  C   PHE A   1       8.928   3.160  21.258  0.00  0.00    +0.224 C 
ATOM     12  O   PHE A   1       8.318   2.165  21.622  0.00  0.00    -0.287 OA
ENDBRANCH   8  11
ENDBRANCH   1   8
TORSDOF 4
REMARK  Name = ../refined-set-2016/3n4b/3n4b_pocket.pdb
REMARK  159 active torsions:
REMARK  status: ('A' for Active; 'I' for Inactive)
REMARK    1  A    between atoms: _1  and  _3
REMARK    2  A    between atoms: _3  and  _4
REMARK    3  A    between atoms: _3  and  _6
REMARK    4  A    between atoms: _6  and  _7
REMARK    5  A    between atoms: _17  and  _19
REMARK    6  A    between atoms: _19  and  _20
REMARK    7  A    between atoms: _19  and  _22
REMARK    8  A    between atoms: _22  and  _23
REMARK    9  A    between atoms: _28  and  _29
REMARK   10  A    between atoms: _31  and  _33
REMARK   11  A    between atoms: _33  and  _34
REMARK   12  A    between atoms: _33  and  _36
REMARK   13  A    between atoms: _36  and  _37
REMARK   14  A    between atoms: _43  and  _45
REMARK   15  A    between atoms: _45  and  _46
REMARK   16  A    between atoms: _45  and  _48
REMARK   17  A    between atoms: _48  and  _49
REMARK   18  A    between atoms: _52  and  _53
REMARK   19  A    between atoms: _58  and  _60
REMARK   20  A    between atoms: _60  and  _61
REMARK   21  A    between atoms: _60  and  _63
REMARK   22  A    between atoms: _63  and  _64
REMARK   23  A    between atoms: _69  and  _71
REMARK   24  A    between atoms: _71  and  _72
REMARK   25  A    between atoms: _75  and  _77
REMARK   26  A    between atoms: _77  and  _78
REMARK   27  A    between atoms: _77  and  _80
REMARK   28  A    between atoms: _80  and  _81
REMARK   29  A    between atoms: _86  and  _88
REMARK   30  A    between atoms: _88  and  _89
REMARK   31  A    between atoms: _88  and  _91
REMARK   32  A    between atoms: _91  and  _92
REMARK   33  A    between atoms: _92  and  _93
REMARK   34  A    between atoms: _96  and  _98
REMARK   35  A    between atoms: _98  and  _99
REMARK   36  A    between atoms: _98  and  _101
REMARK   37  A    between atoms: _101  and  _102
REMARK   38  A    between atoms: _105  and  _107
REMARK   39  A    between atoms: _107  and  _108
REMARK   40  A    between atoms: _107  and  _110
REMARK   41  A    between atoms: _110  and  _111
REMARK   42  A    between atoms: _111  and  _112
REMARK   43  A    between atoms: _117  and  _119
REMARK   44  A    between atoms: _119  and  _120
REMARK   45  A    between atoms: _119  and  _122
REMARK   46  A    between atoms: _122  and  _123
REMARK   47  A    between atoms: _129  and  _131
REMARK   48  A    between atoms: _142  and  _145
REMARK   49  A    between atoms: _145  and  _146
REMARK   50  A    between atoms: _154  and  _155
REMARK   51  A    between atoms: _163  and  _165
REMARK   52  A    between atoms: _165  and  _166
REMARK   53  A    between atoms: _165  and  _168
REMARK   54  A    between atoms: _168  and  _169
REMARK   55  A    between atoms: _169  and  _170
REMARK   56  A    between atoms: _173  and  _175
REMARK   57  A    between atoms: _175  and  _176
REMARK   58  A    between atoms: _175  and  _178
REMARK   59  A    between atoms: _178  and  _179
REMARK   60  A    between atoms: _184  and  _186
REMARK   61  A    between atoms: _186  and  _187
REMARK   62  A    between atoms: _186  and  _189
REMARK   63  A    between atoms: _189  and  _190
REMARK   64  A    between atoms: _190  and  _191
REMARK   65  A    between atoms: _194  and  _196
REMARK   66  A    between atoms: _196  and  _197
REMARK   67  A    between atoms: _196  and  _199
REMARK   68  A    between atoms: _199  and  _200
REMARK   69  A    between atoms: _203  and  _205
REMARK   70  A    between atoms: _205  and  _206
REMARK   71  A    between atoms: _205  and  _208
REMARK   72  A    between atoms: _208  and  _209
REMARK   73  A    between atoms: _210  and  ZN_442
REMARK   74  A    between atoms: _214  and  _216
REMARK   75  A    between atoms: _216  and  _217
REMARK   76  A    between atoms: _216  and  _219
REMARK   77  A    between atoms: _219  and  _220
REMARK   78  A    between atoms: _223  and  _225
REMARK   79  A    between atoms: _225  and  _226
REMARK   80  A    between atoms: _225  and  _228
REMARK   81  A    between atoms: _231  and  _233
REMARK   82  A    between atoms: _233  and  _234
REMARK   83  A    between atoms: _233  and  _236
REMARK   84  A    between atoms: _236  and  _237
REMARK   85  A    between atoms: _242  and  _244
REMARK   86  A    between atoms: _244  and  _245
REMARK   87  A    between atoms: _244  and  _247
REMARK   88  A    between atoms: _247  and  _248
REMARK   89  A    between atoms: _254  and  _256
REMARK   90  A    between atoms: _256  and  _257
REMARK   91  A    between atoms: _259  and  _261
REMARK   92  A    between atoms: _261  and  _262
REMARK   93  A    between atoms: _261  and  _264
REMARK   94  A    between atoms: _267  and  _269
REMARK   95  A    between atoms: _269  and  _270
REMARK   96  A    between atoms: _269  and  _272
REMARK   97  A    between atoms: _272  and  _273
REMARK   98  A    between atoms: _273  and  _274
REMARK   99  A    between atoms: _279  and  _281
REMARK  100  A    between atoms: _281  and  _282
REMARK  101  A    between atoms: _281  and  _284
REMARK  102  A    between atoms: _284  and  _285
REMARK  103  A    between atoms: _288  and  _290
REMARK  104  A    between atoms: _290  and  _291
REMARK  105  A    between atoms: _294  and  _296
REMARK  106  A    between atoms: _296  and  _297
REMARK  107  A    between atoms: _296  and  _299
REMARK  108  A    between atoms: _302  and  _304
REMARK  109  A    between atoms: _304  and  _305
REMARK  110  A    between atoms: _304  and  _307
REMARK  111  A    between atoms: _307  and  _308
REMARK  112  A    between atoms: _311  and  _313
REMARK  113  A    between atoms: _313  and  _314
REMARK  114  A    between atoms: _316  and  _318
REMARK  115  A    between atoms: _318  and  _319
REMARK  116  A    between atoms: _318  and  _321
REMARK  117  A    between atoms: _321  and  _322
REMARK  118  A    between atoms: _324  and  _326
REMARK  119  A    between atoms: _326  and  _327
REMARK  120  A    between atoms: _326  and  _329
REMARK  121  A    between atoms: _329  and  _330
REMARK  122  A    between atoms: _333  and  _335
REMARK  123  A    between atoms: _335  and  _336
REMARK  124  A    between atoms: _335  and  _338
REMARK  125  A    between atoms: _338  and  _339
REMARK  126  A    between atoms: _342  and  _344
REMARK  127  A    between atoms: _344  and  _345
REMARK  128  A    between atoms: _344  and  _347
REMARK  129  A    between atoms: _347  and  _348
REMARK  130  A    between atoms: _352  and  _353
REMARK  131  A    between atoms: _359  and  _360
REMARK  132  A    between atoms: _365  and  _367
REMARK  133  A    between atoms: _367  and  _368
REMARK  134  A    between atoms: _367  and  _370
REMARK  135  A    between atoms: _370  and  _371
REMARK  136  A    between atoms: _374  and  _376
REMARK  137  A    between atoms: _376  and  _377
REMARK  138  A    between atoms: _376  and  _379
REMARK  139  A    between atoms: _379  and  _380
REMARK  140  A    between atoms: _383  and  _385
REMARK  141  A    between atoms: _385  and  _386
REMARK  142  A    between atoms: _385  and  _388
REMARK  143  A    between atoms: _390  and  _392
REMARK  144  A    between atoms: _392  and  _393
REMARK  145  A    between atoms: _392  and  _395
REMARK  146  A    between atoms: _398  and  _400
REMARK  147  A    between atoms: _400  and  _401
REMARK  148  A    between atoms: _400  and  _403
REMARK  149  A    between atoms: _403  and  _404
REMARK  150  A    between atoms: _414  and  _416
REMARK  151  A    between atoms: _416  and  _417
REMARK  152  A    between atoms: _416  and  _419
REMARK  153  A    between atoms: _419  and  _420
REMARK  154  A    between atoms: _425  and  _427
REMARK  155  A    between atoms: _427  and  _428
REMARK  156  A    between atoms: _427  and  _430
REMARK  157  A    between atoms: _430  and  _431
REMARK  158  A    between atoms: _431  and  _432
REMARK  159  A    between atoms: _432  and  _433
REMARK                            x       y       z     vdW  Elec       q    Type
REMARK                         _______ _______ _______ _____ _____    ______ ____
ROOT
ATOM      1  C   SER A   1      -2.264  -3.064  23.161  0.00  0.00    +0.244 C 
ATOM      2  N   PRO A   2      -2.907  -4.203  22.907  0.00  0.00    -0.273 N 
ATOM      3  CA  PRO A   2      -4.075  -4.748  23.590  0.00  0.00    +0.140 C 
ATOM      4  CB  PRO A   2      -4.576  -5.799  22.586  0.00  0.00    +0.030 C 
ATOM      5  CG  PRO A   2      -3.290  -6.336  21.996  0.00  0.00    +0.024 C 
ATOM      6  CD  PRO A   2      -2.429  -5.085  21.824  0.00  0.00    +0.094 C 
ATOM      7  O   SER A   1      -1.352  -2.672  22.478  0.00  0.00    -0.273 OA
ENDROOT
BRANCH   3   8
ATOM      8  C   PRO A   2      -3.655  -5.422  24.901  0.00  0.00    +0.227 C 
ATOM      9  O   PRO A   2      -2.459  -5.469  25.246  0.00  0.00    -0.286 OA
ENDBRANCH   3   8
BRANCH   1  10
ATOM     10  CA  SER A   1      -2.788  -2.212  24.299  0.00  0.00    +0.175 C 
BRANCH  10  11
ATOM     11  N   SER A   1      -1.717  -1.347  24.759  0.00  0.00    -0.236 NA
ATOM     12  H   SER A   1      -1.209  -0.770  24.058  0.00  0.00    +0.142 HD
ENDBRANCH  10  11
BRANCH  10  13
ATOM     13  CB  SER A   1      -3.937  -1.372  23.753  0.00  0.00    +0.163 C 
BRANCH  13  14
ATOM     14  OG  SER A   1      -4.549  -0.668  24.825  0.00  0.00    -0.380 OA
ATOM     15  H   SER A   1      -4.895  -1.316  25.489  0.00  0.00    +0.211 HD
ENDBRANCH  13  14
ENDBRANCH  10  13
ENDBRANCH   1  10
TORSDOF 5
REMARK  Name = ../refined-set-2016/3n4b/3n4b_pocket.pdb
REMARK  159 active torsions:
REMARK  status: ('A' for Active; 'I' for Inactive)
REMARK    1  A    between atoms: _1  and  _3
REMARK    2  A    between atoms: _3  and  _4
REMARK    3  A    between atoms: _3  and  _6
REMARK    4  A    between atoms: _6  and  _7
REMARK    5  A    between atoms: _17  and  _19
REMARK    6  A    between atoms: _19  and  _20
REMARK    7  A    between atoms: _19  and  _22
REMARK    8  A    between atoms: _22  and  _23
REMARK    9  A    between atoms: _28  and  _29
REMARK   10  A    between atoms: _31  and  _33
REMARK   11  A    between atoms: _33  and  _34
REMARK   12  A    between atoms: _33  and  _36
REMARK   13  A    between atoms: _36  and  _37
REMARK   14  A    between atoms: _43  and  _45
REMARK   15  A    between atoms: _45  and  _46
REMARK   16  A    between atoms: _45  and  _48
REMARK   17  A    between atoms: _48  and  _49
REMARK   18  A    between atoms: _52  and  _53
REMARK   19  A    between atoms: _58  and  _60
REMARK   20  A    between atoms: _60  and  _61
REMARK   21  A    between atoms: _60  and  _63
REMARK   22  A    between atoms: _63  and  _64
REMARK   23  A    between atoms: _69  and  _71
REMARK   24  A    between atoms: _71  and  _72
REMARK   25  A    between atoms: _75  and  _77
REMARK   26  A    between atoms: _77  and  _78
REMARK   27  A    between atoms: _77  and  _80
REMARK   28  A    between atoms: _80  and  _81
REMARK   29  A    between atoms: _86  and  _88
REMARK   30  A    between atoms: _88  and  _89
REMARK   31  A    between atoms: _88  and  _91
REMARK   32  A    between atoms: _91  and  _92
REMARK   33  A    between atoms: _92  and  _93
REMARK   34  A    between atoms: _96  and  _98
REMARK   35  A    between atoms: _98  and  _99
REMARK   36  A    between atoms: _98  and  _101
REMARK   37  A    between atoms: _101  and  _102
REMARK   38  A    between atoms: _105  and  _107
REMARK   39  A    between atoms: _107  and  _108
REMARK   40  A    between atoms: _107  and  _110
REMARK   41  A    between atoms: _110  and  _111
REMARK   42  A    between atoms: _111  and  _112
REMARK   43  A    between atoms: _117  and  _119
REMARK   44  A    between atoms: _119  and  _120
REMARK   45  A    between atoms: _119  and  _122
REMARK   46  A    between atoms: _122  and  _123
REMARK   47  A    between atoms: _129  and  _131
REMARK   48  A    between atoms: _142  and  _145
REMARK   49  A    between atoms: _145  and  _146
REMARK   50  A    between atoms: _154  and  _155
REMARK   51  A    between atoms: _163  and  _165
REMARK   52  A    between atoms: _165  and  _166
REMARK   53  A    between atoms: _165  and  _168
REMARK   54  A    between atoms: _168  and  _169
REMARK   55  A    between atoms: _169  and  _170
REMARK   56  A    between atoms: _173  and  _175
REMARK   57  A    between atoms: _175  and  _176
REMARK   58  A    between atoms: _175  and  _178
REMARK   59  A    between atoms: _178  and  _179
REMARK   60  A    between atoms: _184  and  _186
REMARK   61  A    between atoms: _186  and  _187
REMARK   62  A    between atoms: _186  and  _189
REMARK   63  A    between atoms: _189  and  _190
REMARK   64  A    between atoms: _190  and  _191
REMARK   65  A    between atoms: _194  and  _196
REMARK   66  A    between atoms: _196  and  _197
REMARK   67  A    between atoms: _196  and  _199
REMARK   68  A    between atoms: _199  and  _200
REMARK   69  A    between atoms: _203  and  _205
REMARK   70  A    between atoms: _205  and  _206
REMARK   71  A    between atoms: _205  and  _208
REMARK   72  A    between atoms: _208  and  _209
REMARK   73  A    between atoms: _210  and  ZN_442
REMARK   74  A    between atoms: _214  and  _216
REMARK   75  A    between atoms: _216  and  _217
REMARK   76  A    between atoms: _216  and  _219
REMARK   77  A    between atoms: _219  and  _220
REMARK   78  A    between atoms: _223  and  _225
REMARK   79  A    between atoms: _225  and  _226
REMARK   80  A    between atoms: _225  and  _228
REMARK   81  A    between atoms: _231  and  _233
REMARK   82  A    between atoms: _233  and  _234
REMARK   83  A    between atoms: _233  and  _236
REMARK   84  A    between atoms: _236  and  _237
REMARK   85  A    between atoms: _242  and  _244
REMARK   86  A    between atoms: _244  and  _245
REMARK   87  A    between atoms: _244  and  _247
REMARK   88  A    between atoms: _247  and  _248
REMARK   89  A    between atoms: _254  and  _256
REMARK   90  A    between atoms: _256  and  _257
REMARK   91  A    between atoms: _259  and  _261
REMARK   92  A    between atoms: _261  and  _262
REMARK   93  A    between atoms: _261  and  _264
REMARK   94  A    between atoms: _267  and  _269
REMARK   95  A    between atoms: _269  and  _270
REMARK   96  A    between atoms: _269  and  _272
REMARK   97  A    between atoms: _272  and  _273
REMARK   98  A    between atoms: _273  and  _274
REMARK   99  A    between atoms: _279  and  _281
REMARK  100  A    between atoms: _281  and  _282
REMARK  101  A    between atoms: _281  and  _284
REMARK  102  A    between atoms: _284  and  _285
REMARK  103  A    between atoms: _288  and  _290
REMARK  104  A    between atoms: _290  and  _291
REMARK  105  A    between atoms: _294  and  _296
REMARK  106  A    between atoms: _296  and  _297
REMARK  107  A    between atoms: _296  and  _299
REMARK  108  A    between atoms: _302  and  _304
REMARK  109  A    between atoms: _304  and  _305
REMARK  110  A    between atoms: _304  and  _307
REMARK  111  A    between atoms: _307  and  _308
REMARK  112  A    between atoms: _311  and  _313
REMARK  113  A    between atoms: _313  and  _314
REMARK  114  A    between atoms: _316  and  _318
REMARK  115  A    between atoms: _318  and  _319
REMARK  116  A    between atoms: _318  and  _321
REMARK  117  A    between atoms: _321  and  _322
REMARK  118  A    between atoms: _324  and  _326
REMARK  119  A    between atoms: _326  and  _327
REMARK  120  A    between atoms: _326  and  _329
REMARK  121  A    between atoms: _329  and  _330
REMARK  122  A    between atoms: _333  and  _335
REMARK  123  A    between atoms: _335  and  _336
REMARK  124  A    between atoms: _335  and  _338
REMARK  125  A    between atoms: _338  and  _339
REMARK  126  A    between atoms: _342  and  _344
REMARK  127  A    between atoms: _344  and  _345
REMARK  128  A    between atoms: _344  and  _347
REMARK  129  A    between atoms: _347  and  _348
REMARK  130  A    between atoms: _352  and  _353
REMARK  131  A    between atoms: _359  and  _360
REMARK  132  A    between atoms: _365  and  _367
REMARK  133  A    between atoms: _367  and  _368
REMARK  134  A    between atoms: _367  and  _370
REMARK  135  A    between atoms: _370  and  _371
REMARK  136  A    between atoms: _374  and  _376
REMARK  137  A    between atoms: _376  and  _377
REMARK  138  A    between atoms: _376  and  _379
REMARK  139  A    between atoms: _379  and  _380
REMARK  140  A    between atoms: _383  and  _385
REMARK  141  A    between atoms: _385  and  _386
REMARK  142  A    between atoms: _385  and  _388
REMARK  143  A    between atoms: _390  and  _392
REMARK  144  A    between atoms: _392  and  _393
REMARK  145  A    between atoms: _392  and  _395
REMARK  146  A    between atoms: _398  and  _400
REMARK  147  A    between atoms: _400  and  _401
REMARK  148  A    between atoms: _400  and  _403
REMARK  149  A    between atoms: _403  and  _404
REMARK  150  A    between atoms: _414  and  _416
REMARK  151  A    between atoms: _416  and  _417
REMARK  152  A    between atoms: _416  and  _419
REMARK  153  A    between atoms: _419  and  _420
REMARK  154  A    between atoms: _425  and  _427
REMARK  155  A    between atoms: _427  and  _428
REMARK  156  A    between atoms: _427  and  _430
REMARK  157  A    between atoms: _430  and  _431
REMARK  158  A    between atoms: _431  and  _432
REMARK  159  A    between atoms: _432  and  _433
REMARK                            x       y       z     vdW  Elec       q    Type
REMARK                         _______ _______ _______ _____ _____    ______ ____
ROOT
ATOM      1  CB  ASN A   1      -2.609   2.252   5.396  0.00  0.00    +0.110 C 
ENDROOT
BRANCH   1   2
ATOM      2  CG  ASN A   1      -2.976   1.379   6.573  0.00  0.00    +0.221 C 
ATOM      3  ND2 ASN A   1      -3.721   1.939   7.529  0.00  0.00    -0.329 N 
ATOM      4 HD21 ASN A   1      -4.004   1.382   8.361  0.00  0.00    +0.145 HD
ATOM      5 HD22 ASN A   1      -4.018   2.932   7.442  0.00  0.00    +0.145 HD
ATOM      6  OD1 ASN A   1      -2.600   0.213   6.629  0.00  0.00    -0.275 OA
ENDBRANCH   1   2
BRANCH   1   7
ATOM      7  CA  ASN A   1      -2.255   1.432   4.144  0.00  0.00    +0.142 C 
BRANCH   7   8
ATOM      8  N   ASN A   1      -3.371   0.585   3.708  0.00  0.00    -0.239 NA
ATOM      9  H   ASN A   1      -3.914   0.031   4.401  0.00  0.00    +0.142 HD
ENDBRANCH   7   8
BRANCH   7  10
ATOM     10  C   ASN A   1      -0.983   0.635   4.399  0.00  0.00    +0.225 C 
ATOM     11  O   ASN A   1      -0.019   1.185   4.925  0.00  0.00    -0.287 OA
ENDBRANCH   7  10
ENDBRANCH   1   7
TORSDOF 4
REMARK  Name = ../refined-set-2016/3n4b/3n4b_pocket.pdb
REMARK  159 active torsions:
REMARK  status: ('A' for Active; 'I' for Inactive)
REMARK    1  A    between atoms: _1  and  _3
REMARK    2  A    between atoms: _3  and  _4
REMARK    3  A    between atoms: _3  and  _6
REMARK    4  A    between atoms: _6  and  _7
REMARK    5  A    between atoms: _17  and  _19
REMARK    6  A    between atoms: _19  and  _20
REMARK    7  A    between atoms: _19  and  _22
REMARK    8  A    between atoms: _22  and  _23
REMARK    9  A    between atoms: _28  and  _29
REMARK   10  A    between atoms: _31  and  _33
REMARK   11  A    between atoms: _33  and  _34
REMARK   12  A    between atoms: _33  and  _36
REMARK   13  A    between atoms: _36  and  _37
REMARK   14  A    between atoms: _43  and  _45
REMARK   15  A    between atoms: _45  and  _46
REMARK   16  A    between atoms: _45  and  _48
REMARK   17  A    between atoms: _48  and  _49
REMARK   18  A    between atoms: _52  and  _53
REMARK   19  A    between atoms: _58  and  _60
REMARK   20  A    between atoms: _60  and  _61
REMARK   21  A    between atoms: _60  and  _63
REMARK   22  A    between atoms: _63  and  _64
REMARK   23  A    between atoms: _69  and  _71
REMARK   24  A    between atoms: _71  and  _72
REMARK   25  A    between atoms: _75  and  _77
REMARK   26  A    between atoms: _77  and  _78
REMARK   27  A    between atoms: _77  and  _80
REMARK   28  A    between atoms: _80  and  _81
REMARK   29  A    between atoms: _86  and  _88
REMARK   30  A    between atoms: _88  and  _89
REMARK   31  A    between atoms: _88  and  _91
REMARK   32  A    between atoms: _91  and  _92
REMARK   33  A    between atoms: _92  and  _93
REMARK   34  A    between atoms: _96  and  _98
REMARK   35  A    between atoms: _98  and  _99
REMARK   36  A    between atoms: _98  and  _101
REMARK   37  A    between atoms: _101  and  _102
REMARK   38  A    between atoms: _105  and  _107
REMARK   39  A    between atoms: _107  and  _108
REMARK   40  A    between atoms: _107  and  _110
REMARK   41  A    between atoms: _110  and  _111
REMARK   42  A    between atoms: _111  and  _112
REMARK   43  A    between atoms: _117  and  _119
REMARK   44  A    between atoms: _119  and  _120
REMARK   45  A    between atoms: _119  and  _122
REMARK   46  A    between atoms: _122  and  _123
REMARK   47  A    between atoms: _129  and  _131
REMARK   48  A    between atoms: _142  and  _145
REMARK   49  A    between atoms: _145  and  _146
REMARK   50  A    between atoms: _154  and  _155
REMARK   51  A    between atoms: _163  and  _165
REMARK   52  A    between atoms: _165  and  _166
REMARK   53  A    between atoms: _165  and  _168
REMARK   54  A    between atoms: _168  and  _169
REMARK   55  A    between atoms: _169  and  _170
REMARK   56  A    between atoms: _173  and  _175
REMARK   57  A    between atoms: _175  and  _176
REMARK   58  A    between atoms: _175  and  _178
REMARK   59  A    between atoms: _178  and  _179
REMARK   60  A    between atoms: _184  and  _186
REMARK   61  A    between atoms: _186  and  _187
REMARK   62  A    between atoms: _186  and  _189
REMARK   63  A    between atoms: _189  and  _190
REMARK   64  A    between atoms: _190  and  _191
REMARK   65  A    between atoms: _194  and  _196
REMARK   66  A    between atoms: _196  and  _197
REMARK   67  A    between atoms: _196  and  _199
REMARK   68  A    between atoms: _199  and  _200
REMARK   69  A    between atoms: _203  and  _205
REMARK   70  A    between atoms: _205  and  _206
REMARK   71  A    between atoms: _205  and  _208
REMARK   72  A    between atoms: _208  and  _209
REMARK   73  A    between atoms: _210  and  ZN_442
REMARK   74  A    between atoms: _214  and  _216
REMARK   75  A    between atoms: _216  and  _217
REMARK   76  A    between atoms: _216  and  _219
REMARK   77  A    between atoms: _219  and  _220
REMARK   78  A    between atoms: _223  and  _225
REMARK   79  A    between atoms: _225  and  _226
REMARK   80  A    between atoms: _225  and  _228
REMARK   81  A    between atoms: _231  and  _233
REMARK   82  A    between atoms: _233  and  _234
REMARK   83  A    between atoms: _233  and  _236
REMARK   84  A    between atoms: _236  and  _237
REMARK   85  A    between atoms: _242  and  _244
REMARK   86  A    between atoms: _244  and  _245
REMARK   87  A    between atoms: _244  and  _247
REMARK   88  A    between atoms: _247  and  _248
REMARK   89  A    between atoms: _254  and  _256
REMARK   90  A    between atoms: _256  and  _257
REMARK   91  A    between atoms: _259  and  _261
REMARK   92  A    between atoms: _261  and  _262
REMARK   93  A    between atoms: _261  and  _264
REMARK   94  A    between atoms: _267  and  _269
REMARK   95  A    between atoms: _269  and  _270
REMARK   96  A    between atoms: _269  and  _272
REMARK   97  A    between atoms: _272  and  _273
REMARK   98  A    between atoms: _273  and  _274
REMARK   99  A    between atoms: _279  and  _281
REMARK  100  A    between atoms: _281  and  _282
REMARK  101  A    between atoms: _281  and  _284
REMARK  102  A    between atoms: _284  and  _285
REMARK  103  A    between atoms: _288  and  _290
REMARK  104  A    between atoms: _290  and  _291
REMARK  105  A    between atoms: _294  and  _296
REMARK  106  A    between atoms: _296  and  _297
REMARK  107  A    between atoms: _296  and  _299
REMARK  108  A    between atoms: _302  and  _304
REMARK  109  A    between atoms: _304  and  _305
REMARK  110  A    between atoms: _304  and  _307
REMARK  111  A    between atoms: _307  and  _308
REMARK  112  A    between atoms: _311  and  _313
REMARK  113  A    between atoms: _313  and  _314
REMARK  114  A    between atoms: _316  and  _318
REMARK  115  A    between atoms: _318  and  _319
REMARK  116  A    between atoms: _318  and  _321
REMARK  117  A    between atoms: _321  and  _322
REMARK  118  A    between atoms: _324  and  _326
REMARK  119  A    between atoms: _326  and  _327
REMARK  120  A    between atoms: _326  and  _329
REMARK  121  A    between atoms: _329  and  _330
REMARK  122  A    between atoms: _333  and  _335
REMARK  123  A    between atoms: _335  and  _336
REMARK  124  A    between atoms: _335  and  _338
REMARK  125  A    between atoms: _338  and  _339
REMARK  126  A    between atoms: _342  and  _344
REMARK  127  A    between atoms: _344  and  _345
REMARK  128  A    between atoms: _344  and  _347
REMARK  129  A    between atoms: _347  and  _348
REMARK  130  A    between atoms: _352  and  _353
REMARK  131  A    between atoms: _359  and  _360
REMARK  132  A    between atoms: _365  and  _367
REMARK  133  A    between atoms: _367  and  _368
REMARK  134  A    between atoms: _367  and  _370
REMARK  135  A    between atoms: _370  and  _371
REMARK  136  A    between atoms: _374  and  _376
REMARK  137  A    between atoms: _376  and  _377
REMARK  138  A    between atoms: _376  and  _379
REMARK  139  A    between atoms: _379  and  _380
REMARK  140  A    between atoms: _383  and  _385
REMARK  141  A    between atoms: _385  and  _386
REMARK  142  A    between atoms: _385  and  _388
REMARK  143  A    between atoms: _390  and  _392
REMARK  144  A    between atoms: _392  and  _393
REMARK  145  A    between atoms: _392  and  _395
REMARK  146  A    between atoms: _398  and  _400
REMARK  147  A    between atoms: _400  and  _401
REMARK  148  A    between atoms: _400  and  _403
REMARK  149  A    between atoms: _403  and  _404
REMARK  150  A    between atoms: _414  and  _416
REMARK  151  A    between atoms: _416  and  _417
REMARK  152  A    between atoms: _416  and  _419
REMARK  153  A    between atoms: _419  and  _420
REMARK  154  A    between atoms: _425  and  _427
REMARK  155  A    between atoms: _427  and  _428
REMARK  156  A    between atoms: _427  and  _430
REMARK  157  A    between atoms: _430  and  _431
REMARK  158  A    between atoms: _431  and  _432
REMARK  159  A    between atoms: _432  and  _433
REMARK                            x       y       z     vdW  Elec       q    Type
REMARK                         _______ _______ _______ _____ _____    ______ ____
ROOT
ATOM      1  CA  ALA A   1      -4.528  -3.026   7.425  0.00  0.00    +0.133 C 
ATOM      2  CB  ALA A   1      -5.162  -2.751   8.816  0.00  0.00    +0.027 C 
ENDROOT
BRANCH   1   3
ATOM      3  N   ALA A   1      -3.159  -2.552   7.378  0.00  0.00    -0.239 NA
ATOM      4  H   ALA A   1      -2.966  -1.670   6.863  0.00  0.00    +0.142 HD
ENDBRANCH   1   3
BRANCH   1   5
ATOM      5  C   ALA A   1      -5.272  -2.263   6.316  0.00  0.00    +0.224 C 
ATOM      6  O   ALA A   1      -4.633  -1.627   5.468  0.00  0.00    -0.287 OA
ENDBRANCH   1   5
TORSDOF 2
REMARK  Name = ../refined-set-2016/3n4b/3n4b_pocket.pdb
REMARK  159 active torsions:
REMARK  status: ('A' for Active; 'I' for Inactive)
REMARK    1  A    between atoms: _1  and  _3
REMARK    2  A    between atoms: _3  and  _4
REMARK    3  A    between atoms: _3  and  _6
REMARK    4  A    between atoms: _6  and  _7
REMARK    5  A    between atoms: _17  and  _19
REMARK    6  A    between atoms: _19  and  _20
REMARK    7  A    between atoms: _19  and  _22
REMARK    8  A    between atoms: _22  and  _23
REMARK    9  A    between atoms: _28  and  _29
REMARK   10  A    between atoms: _31  and  _33
REMARK   11  A    between atoms: _33  and  _34
REMARK   12  A    between atoms: _33  and  _36
REMARK   13  A    between atoms: _36  and  _37
REMARK   14  A    between atoms: _43  and  _45
REMARK   15  A    between atoms: _45  and  _46
REMARK   16  A    between atoms: _45  and  _48
REMARK   17  A    between atoms: _48  and  _49
REMARK   18  A    between atoms: _52  and  _53
REMARK   19  A    between atoms: _58  and  _60
REMARK   20  A    between atoms: _60  and  _61
REMARK   21  A    between atoms: _60  and  _63
REMARK   22  A    between atoms: _63  and  _64
REMARK   23  A    between atoms: _69  and  _71
REMARK   24  A    between atoms: _71  and  _72
REMARK   25  A    between atoms: _75  and  _77
REMARK   26  A    between atoms: _77  and  _78
REMARK   27  A    between atoms: _77  and  _80
REMARK   28  A    between atoms: _80  and  _81
REMARK   29  A    between atoms: _86  and  _88
REMARK   30  A    between atoms: _88  and  _89
REMARK   31  A    between atoms: _88  and  _91
REMARK   32  A    between atoms: _91  and  _92
REMARK   33  A    between atoms: _92  and  _93
REMARK   34  A    between atoms: _96  and  _98
REMARK   35  A    between atoms: _98  and  _99
REMARK   36  A    between atoms: _98  and  _101
REMARK   37  A    between atoms: _101  and  _102
REMARK   38  A    between atoms: _105  and  _107
REMARK   39  A    between atoms: _107  and  _108
REMARK   40  A    between atoms: _107  and  _110
REMARK   41  A    between atoms: _110  and  _111
REMARK   42  A    between atoms: _111  and  _112
REMARK   43  A    between atoms: _117  and  _119
REMARK   44  A    between atoms: _119  and  _120
REMARK   45  A    between atoms: _119  and  _122
REMARK   46  A    between atoms: _122  and  _123
REMARK   47  A    between atoms: _129  and  _131
REMARK   48  A    between atoms: _142  and  _145
REMARK   49  A    between atoms: _145  and  _146
REMARK   50  A    between atoms: _154  and  _155
REMARK   51  A    between atoms: _163  and  _165
REMARK   52  A    between atoms: _165  and  _166
REMARK   53  A    between atoms: _165  and  _168
REMARK   54  A    between atoms: _168  and  _169
REMARK   55  A    between atoms: _169  and  _170
REMARK   56  A    between atoms: _173  and  _175
REMARK   57  A    between atoms: _175  and  _176
REMARK   58  A    between atoms: _175  and  _178
REMARK   59  A    between atoms: _178  and  _179
REMARK   60  A    between atoms: _184  and  _186
REMARK   61  A    between atoms: _186  and  _187
REMARK   62  A    between atoms: _186  and  _189
REMARK   63  A    between atoms: _189  and  _190
REMARK   64  A    between atoms: _190  and  _191
REMARK   65  A    between atoms: _194  and  _196
REMARK   66  A    between atoms: _196  and  _197
REMARK   67  A    between atoms: _196  and  _199
REMARK   68  A    between atoms: _199  and  _200
REMARK   69  A    between atoms: _203  and  _205
REMARK   70  A    between atoms: _205  and  _206
REMARK   71  A    between atoms: _205  and  _208
REMARK   72  A    between atoms: _208  and  _209
REMARK   73  A    between atoms: _210  and  ZN_442
REMARK   74  A    between atoms: _214  and  _216
REMARK   75  A    between atoms: _216  and  _217
REMARK   76  A    between atoms: _216  and  _219
REMARK   77  A    between atoms: _219  and  _220
REMARK   78  A    between atoms: _223  and  _225
REMARK   79  A    between atoms: _225  and  _226
REMARK   80  A    between atoms: _225  and  _228
REMARK   81  A    between atoms: _231  and  _233
REMARK   82  A    between atoms: _233  and  _234
REMARK   83  A    between atoms: _233  and  _236
REMARK   84  A    between atoms: _236  and  _237
REMARK   85  A    between atoms: _242  and  _244
REMARK   86  A    between atoms: _244  and  _245
REMARK   87  A    between atoms: _244  and  _247
REMARK   88  A    between atoms: _247  and  _248
REMARK   89  A    between atoms: _254  and  _256
REMARK   90  A    between atoms: _256  and  _257
REMARK   91  A    between atoms: _259  and  _261
REMARK   92  A    between atoms: _261  and  _262
REMARK   93  A    between atoms: _261  and  _264
REMARK   94  A    between atoms: _267  and  _269
REMARK   95  A    between atoms: _269  and  _270
REMARK   96  A    between atoms: _269  and  _272
REMARK   97  A    between atoms: _272  and  _273
REMARK   98  A    between atoms: _273  and  _274
REMARK   99  A    between atoms: _279  and  _281
REMARK  100  A    between atoms: _281  and  _282
REMARK  101  A    between atoms: _281  and  _284
REMARK  102  A    between atoms: _284  and  _285
REMARK  103  A    between atoms: _288  and  _290
REMARK  104  A    between atoms: _290  and  _291
REMARK  105  A    between atoms: _294  and  _296
REMARK  106  A    between atoms: _296  and  _297
REMARK  107  A    between atoms: _296  and  _299
REMARK  108  A    between atoms: _302  and  _304
REMARK  109  A    between atoms: _304  and  _305
REMARK  110  A    between atoms: _304  and  _307
REMARK  111  A    between atoms: _307  and  _308
REMARK  112  A    between atoms: _311  and  _313
REMARK  113  A    between atoms: _313  and  _314
REMARK  114  A    between atoms: _316  and  _318
REMARK  115  A    between atoms: _318  and  _319
REMARK  116  A    between atoms: _318  and  _321
REMARK  117  A    between atoms: _321  and  _322
REMARK  118  A    between atoms: _324  and  _326
REMARK  119  A    between atoms: _326  and  _327
REMARK  120  A    between atoms: _326  and  _329
REMARK  121  A    between atoms: _329  and  _330
REMARK  122  A    between atoms: _333  and  _335
REMARK  123  A    between atoms: _335  and  _336
REMARK  124  A    between atoms: _335  and  _338
REMARK  125  A    between atoms: _338  and  _339
REMARK  126  A    between atoms: _342  and  _344
REMARK  127  A    between atoms: _344  and  _345
REMARK  128  A    between atoms: _344  and  _347
REMARK  129  A    between atoms: _347  and  _348
REMARK  130  A    between atoms: _352  and  _353
REMARK  131  A    between atoms: _359  and  _360
REMARK  132  A    between atoms: _365  and  _367
REMARK  133  A    between atoms: _367  and  _368
REMARK  134  A    between atoms: _367  and  _370
REMARK  135  A    between atoms: _370  and  _371
REMARK  136  A    between atoms: _374  and  _376
REMARK  137  A    between atoms: _376  and  _377
REMARK  138  A    between atoms: _376  and  _379
REMARK  139  A    between atoms: _379  and  _380
REMARK  140  A    between atoms: _383  and  _385
REMARK  141  A    between atoms: _385  and  _386
REMARK  142  A    between atoms: _385  and  _388
REMARK  143  A    between atoms: _390  and  _392
REMARK  144  A    between atoms: _392  and  _393
REMARK  145  A    between atoms: _392  and  _395
REMARK  146  A    between atoms: _398  and  _400
REMARK  147  A    between atoms: _400  and  _401
REMARK  148  A    between atoms: _400  and  _403
REMARK  149  A    between atoms: _403  and  _404
REMARK  150  A    between atoms: _414  and  _416
REMARK  151  A    between atoms: _416  and  _417
REMARK  152  A    between atoms: _416  and  _419
REMARK  153  A    between atoms: _419  and  _420
REMARK  154  A    between atoms: _425  and  _427
REMARK  155  A    between atoms: _427  and  _428
REMARK  156  A    between atoms: _427  and  _430
REMARK  157  A    between atoms: _430  and  _431
REMARK  158  A    between atoms: _431  and  _432
REMARK  159  A    between atoms: _432  and  _433
REMARK                            x       y       z     vdW  Elec       q    Type
REMARK                         _______ _______ _______ _____ _____    ______ ____
ROOT
ATOM      1  CB  ASN A   1      -8.546   2.806   7.161  0.00  0.00    +0.110 C 
ENDROOT
BRANCH   1   2
ATOM      2  CG  ASN A   1      -7.483   2.514   8.186  0.00  0.00    +0.221 C 
ATOM      3  OD1 ASN A   1      -7.376   1.396   8.663  0.00  0.00    -0.275 OA
ATOM      4  ND2 ASN A   1      -6.650   3.519   8.490  0.00  0.00    -0.329 N 
ATOM      5 HD21 ASN A   1      -5.870   3.363   9.160  0.00  0.00    +0.145 HD
ATOM      6 HD22 ASN A   1      -6.784   4.455   8.056  0.00  0.00    +0.145 HD
ENDBRANCH   1   2
BRANCH   1   7
ATOM      7  CA  ASN A   1      -9.279   1.550   6.700  0.00  0.00    +0.142 C 
BRANCH   7   8
ATOM      8  N   ASN A   1      -8.417   0.657   5.923  0.00  0.00    -0.239 NA
ATOM      9  H   ASN A   1      -7.868   1.033   5.124  0.00  0.00    +0.142 HD
ENDBRANCH   7   8
BRANCH   7  10
ATOM     10  C   ASN A   1     -10.455   1.988   5.836  0.00  0.00    +0.225 C 
ATOM     11  O   ASN A   1     -10.264   2.418   4.692  0.00  0.00    -0.287 OA
ENDBRANCH   7  10
ENDBRANCH   1   7
TORSDOF 4
REMARK  Name = ../refined-set-2016/3n4b/3n4b_pocket.pdb
REMARK  159 active torsions:
REMARK  status: ('A' for Active; 'I' for Inactive)
REMARK    1  A    between atoms: _1  and  _3
REMARK    2  A    between atoms: _3  and  _4
REMARK    3  A    between atoms: _3  and  _6
REMARK    4  A    between atoms: _6  and  _7
REMARK    5  A    between atoms: _17  and  _19
REMARK    6  A    between atoms: _19  and  _20
REMARK    7  A    between atoms: _19  and  _22
REMARK    8  A    between atoms: _22  and  _23
REMARK    9  A    between atoms: _28  and  _29
REMARK   10  A    between atoms: _31  and  _33
REMARK   11  A    between atoms: _33  and  _34
REMARK   12  A    between atoms: _33  and  _36
REMARK   13  A    between atoms: _36  and  _37
REMARK   14  A    between atoms: _43  and  _45
REMARK   15  A    between atoms: _45  and  _46
REMARK   16  A    between atoms: _45  and  _48
REMARK   17  A    between atoms: _48  and  _49
REMARK   18  A    between atoms: _52  and  _53
REMARK   19  A    between atoms: _58  and  _60
REMARK   20  A    between atoms: _60  and  _61
REMARK   21  A    between atoms: _60  and  _63
REMARK   22  A    between atoms: _63  and  _64
REMARK   23  A    between atoms: _69  and  _71
REMARK   24  A    between atoms: _71  and  _72
REMARK   25  A    between atoms: _75  and  _77
REMARK   26  A    between atoms: _77  and  _78
REMARK   27  A    between atoms: _77  and  _80
REMARK   28  A    between atoms: _80  and  _81
REMARK   29  A    between atoms: _86  and  _88
REMARK   30  A    between atoms: _88  and  _89
REMARK   31  A    between atoms: _88  and  _91
REMARK   32  A    between atoms: _91  and  _92
REMARK   33  A    between atoms: _92  and  _93
REMARK   34  A    between atoms: _96  and  _98
REMARK   35  A    between atoms: _98  and  _99
REMARK   36  A    between atoms: _98  and  _101
REMARK   37  A    between atoms: _101  and  _102
REMARK   38  A    between atoms: _105  and  _107
REMARK   39  A    between atoms: _107  and  _108
REMARK   40  A    between atoms: _107  and  _110
REMARK   41  A    between atoms: _110  and  _111
REMARK   42  A    between atoms: _111  and  _112
REMARK   43  A    between atoms: _117  and  _119
REMARK   44  A    between atoms: _119  and  _120
REMARK   45  A    between atoms: _119  and  _122
REMARK   46  A    between atoms: _122  and  _123
REMARK   47  A    between atoms: _129  and  _131
REMARK   48  A    between atoms: _142  and  _145
REMARK   49  A    between atoms: _145  and  _146
REMARK   50  A    between atoms: _154  and  _155
REMARK   51  A    between atoms: _163  and  _165
REMARK   52  A    between atoms: _165  and  _166
REMARK   53  A    between atoms: _165  and  _168
REMARK   54  A    between atoms: _168  and  _169
REMARK   55  A    between atoms: _169  and  _170
REMARK   56  A    between atoms: _173  and  _175
REMARK   57  A    between atoms: _175  and  _176
REMARK   58  A    between atoms: _175  and  _178
REMARK   59  A    between atoms: _178  and  _179
REMARK   60  A    between atoms: _184  and  _186
REMARK   61  A    between atoms: _186  and  _187
REMARK   62  A    between atoms: _186  and  _189
REMARK   63  A    between atoms: _189  and  _190
REMARK   64  A    between atoms: _190  and  _191
REMARK   65  A    between atoms: _194  and  _196
REMARK   66  A    between atoms: _196  and  _197
REMARK   67  A    between atoms: _196  and  _199
REMARK   68  A    between atoms: _199  and  _200
REMARK   69  A    between atoms: _203  and  _205
REMARK   70  A    between atoms: _205  and  _206
REMARK   71  A    between atoms: _205  and  _208
REMARK   72  A    between atoms: _208  and  _209
REMARK   73  A    between atoms: _210  and  ZN_442
REMARK   74  A    between atoms: _214  and  _216
REMARK   75  A    between atoms: _216  and  _217
REMARK   76  A    between atoms: _216  and  _219
REMARK   77  A    between atoms: _219  and  _220
REMARK   78  A    between atoms: _223  and  _225
REMARK   79  A    between atoms: _225  and  _226
REMARK   80  A    between atoms: _225  and  _228
REMARK   81  A    between atoms: _231  and  _233
REMARK   82  A    between atoms: _233  and  _234
REMARK   83  A    between atoms: _233  and  _236
REMARK   84  A    between atoms: _236  and  _237
REMARK   85  A    between atoms: _242  and  _244
REMARK   86  A    between atoms: _244  and  _245
REMARK   87  A    between atoms: _244  and  _247
REMARK   88  A    between atoms: _247  and  _248
REMARK   89  A    between atoms: _254  and  _256
REMARK   90  A    between atoms: _256  and  _257
REMARK   91  A    between atoms: _259  and  _261
REMARK   92  A    between atoms: _261  and  _262
REMARK   93  A    between atoms: _261  and  _264
REMARK   94  A    between atoms: _267  and  _269
REMARK   95  A    between atoms: _269  and  _270
REMARK   96  A    between atoms: _269  and  _272
REMARK   97  A    between atoms: _272  and  _273
REMARK   98  A    between atoms: _273  and  _274
REMARK   99  A    between atoms: _279  and  _281
REMARK  100  A    between atoms: _281  and  _282
REMARK  101  A    between atoms: _281  and  _284
REMARK  102  A    between atoms: _284  and  _285
REMARK  103  A    between atoms: _288  and  _290
REMARK  104  A    between atoms: _290  and  _291
REMARK  105  A    between atoms: _294  and  _296
REMARK  106  A    between atoms: _296  and  _297
REMARK  107  A    between atoms: _296  and  _299
REMARK  108  A    between atoms: _302  and  _304
REMARK  109  A    between atoms: _304  and  _305
REMARK  110  A    between atoms: _304  and  _307
REMARK  111  A    between atoms: _307  and  _308
REMARK  112  A    between atoms: _311  and  _313
REMARK  113  A    between atoms: _313  and  _314
REMARK  114  A    between atoms: _316  and  _318
REMARK  115  A    between atoms: _318  and  _319
REMARK  116  A    between atoms: _318  and  _321
REMARK  117  A    between atoms: _321  and  _322
REMARK  118  A    between atoms: _324  and  _326
REMARK  119  A    between atoms: _326  and  _327
REMARK  120  A    between atoms: _326  and  _329
REMARK  121  A    between atoms: _329  and  _330
REMARK  122  A    between atoms: _333  and  _335
REMARK  123  A    between atoms: _335  and  _336
REMARK  124  A    between atoms: _335  and  _338
REMARK  125  A    between atoms: _338  and  _339
REMARK  126  A    between atoms: _342  and  _344
REMARK  127  A    between atoms: _344  and  _345
REMARK  128  A    between atoms: _344  and  _347
REMARK  129  A    between atoms: _347  and  _348
REMARK  130  A    between atoms: _352  and  _353
REMARK  131  A    between atoms: _359  and  _360
REMARK  132  A    between atoms: _365  and  _367
REMARK  133  A    between atoms: _367  and  _368
REMARK  134  A    between atoms: _367  and  _370
REMARK  135  A    between atoms: _370  and  _371
REMARK  136  A    between atoms: _374  and  _376
REMARK  137  A    between atoms: _376  and  _377
REMARK  138  A    between atoms: _376  and  _379
REMARK  139  A    between atoms: _379  and  _380
REMARK  140  A    between atoms: _383  and  _385
REMARK  141  A    between atoms: _385  and  _386
REMARK  142  A    between atoms: _385  and  _388
REMARK  143  A    between atoms: _390  and  _392
REMARK  144  A    between atoms: _392  and  _393
REMARK  145  A    between atoms: _392  and  _395
REMARK  146  A    between atoms: _398  and  _400
REMARK  147  A    between atoms: _400  and  _401
REMARK  148  A    between atoms: _400  and  _403
REMARK  149  A    between atoms: _403  and  _404
REMARK  150  A    between atoms: _414  and  _416
REMARK  151  A    between atoms: _416  and  _417
REMARK  152  A    between atoms: _416  and  _419
REMARK  153  A    between atoms: _419  and  _420
REMARK  154  A    between atoms: _425  and  _427
REMARK  155  A    between atoms: _427  and  _428
REMARK  156  A    between atoms: _427  and  _430
REMARK  157  A    between atoms: _430  and  _431
REMARK  158  A    between atoms: _431  and  _432
REMARK  159  A    between atoms: _432  and  _433
REMARK                            x       y       z     vdW  Elec       q    Type
REMARK                         _______ _______ _______ _____ _____    ______ ____
ROOT
ATOM      1  CA  GLU A   1     -12.719   6.343   6.314  0.00  0.00    +0.134 C 
ENDROOT
BRANCH   1   2
ATOM      2  N   GLU A   1     -12.784   4.991   5.750  0.00  0.00    -0.239 NA
ATOM      3  H   GLU A   1     -12.712   4.873   4.719  0.00  0.00    +0.142 HD
ENDBRANCH   1   2
BRANCH   1   4
ATOM      4  C   GLU A   1     -14.065   7.050   6.202  0.00  0.00    +0.224 C 
ATOM      5  O   GLU A   1     -14.787   6.837   5.236  0.00  0.00    -0.287 OA
ENDBRANCH   1   4
BRANCH   1   6
ATOM      6  CB  GLU A   1     -11.664   7.175   5.574  0.00  0.00    +0.037 C 
BRANCH   6   7
ATOM      7  CG  GLU A   1     -10.266   6.532   5.618  0.00  0.00    +0.116 C 
BRANCH   7   8
ATOM      8  CD  GLU A   1      -9.249   7.266   4.756  0.00  0.00    +0.365 C 
ATOM      9  OE2 GLU A   1      -8.046   7.145   5.050  0.00  0.00    -0.246 OA
ATOM     10  OE1 GLU A   1      -9.656   7.957   3.797  0.00  0.00    -0.246 OA
ENDBRANCH   7   8
ENDBRANCH   6   7
ENDBRANCH   1   6
TORSDOF 5
REMARK  Name = ../refined-set-2016/3n4b/3n4b_pocket.pdb
REMARK  159 active torsions:
REMARK  status: ('A' for Active; 'I' for Inactive)
REMARK    1  A    between atoms: _1  and  _3
REMARK    2  A    between atoms: _3  and  _4
REMARK    3  A    between atoms: _3  and  _6
REMARK    4  A    between atoms: _6  and  _7
REMARK    5  A    between atoms: _17  and  _19
REMARK    6  A    between atoms: _19  and  _20
REMARK    7  A    between atoms: _19  and  _22
REMARK    8  A    between atoms: _22  and  _23
REMARK    9  A    between atoms: _28  and  _29
REMARK   10  A    between atoms: _31  and  _33
REMARK   11  A    between atoms: _33  and  _34
REMARK   12  A    between atoms: _33  and  _36
REMARK   13  A    between atoms: _36  and  _37
REMARK   14  A    between atoms: _43  and  _45
REMARK   15  A    between atoms: _45  and  _46
REMARK   16  A    between atoms: _45  and  _48
REMARK   17  A    between atoms: _48  and  _49
REMARK   18  A    between atoms: _52  and  _53
REMARK   19  A    between atoms: _58  and  _60
REMARK   20  A    between atoms: _60  and  _61
REMARK   21  A    between atoms: _60  and  _63
REMARK   22  A    between atoms: _63  and  _64
REMARK   23  A    between atoms: _69  and  _71
REMARK   24  A    between atoms: _71  and  _72
REMARK   25  A    between atoms: _75  and  _77
REMARK   26  A    between atoms: _77  and  _78
REMARK   27  A    between atoms: _77  and  _80
REMARK   28  A    between atoms: _80  and  _81
REMARK   29  A    between atoms: _86  and  _88
REMARK   30  A    between atoms: _88  and  _89
REMARK   31  A    between atoms: _88  and  _91
REMARK   32  A    between atoms: _91  and  _92
REMARK   33  A    between atoms: _92  and  _93
REMARK   34  A    between atoms: _96  and  _98
REMARK   35  A    between atoms: _98  and  _99
REMARK   36  A    between atoms: _98  and  _101
REMARK   37  A    between atoms: _101  and  _102
REMARK   38  A    between atoms: _105  and  _107
REMARK   39  A    between atoms: _107  and  _108
REMARK   40  A    between atoms: _107  and  _110
REMARK   41  A    between atoms: _110  and  _111
REMARK   42  A    between atoms: _111  and  _112
REMARK   43  A    between atoms: _117  and  _119
REMARK   44  A    between atoms: _119  and  _120
REMARK   45  A    between atoms: _119  and  _122
REMARK   46  A    between atoms: _122  and  _123
REMARK   47  A    between atoms: _129  and  _131
REMARK   48  A    between atoms: _142  and  _145
REMARK   49  A    between atoms: _145  and  _146
REMARK   50  A    between atoms: _154  and  _155
REMARK   51  A    between atoms: _163  and  _165
REMARK   52  A    between atoms: _165  and  _166
REMARK   53  A    between atoms: _165  and  _168
REMARK   54  A    between atoms: _168  and  _169
REMARK   55  A    between atoms: _169  and  _170
REMARK   56  A    between atoms: _173  and  _175
REMARK   57  A    between atoms: _175  and  _176
REMARK   58  A    between atoms: _175  and  _178
REMARK   59  A    between atoms: _178  and  _179
REMARK   60  A    between atoms: _184  and  _186
REMARK   61  A    between atoms: _186  and  _187
REMARK   62  A    between atoms: _186  and  _189
REMARK   63  A    between atoms: _189  and  _190
REMARK   64  A    between atoms: _190  and  _191
REMARK   65  A    between atoms: _194  and  _196
REMARK   66  A    between atoms: _196  and  _197
REMARK   67  A    between atoms: _196  and  _199
REMARK   68  A    between atoms: _199  and  _200
REMARK   69  A    between atoms: _203  and  _205
REMARK   70  A    between atoms: _205  and  _206
REMARK   71  A    between atoms: _205  and  _208
REMARK   72  A    between atoms: _208  and  _209
REMARK   73  A    between atoms: _210  and  ZN_442
REMARK   74  A    between atoms: _214  and  _216
REMARK   75  A    between atoms: _216  and  _217
REMARK   76  A    between atoms: _216  and  _219
REMARK   77  A    between atoms: _219  and  _220
REMARK   78  A    between atoms: _223  and  _225
REMARK   79  A    between atoms: _225  and  _226
REMARK   80  A    between atoms: _225  and  _228
REMARK   81  A    between atoms: _231  and  _233
REMARK   82  A    between atoms: _233  and  _234
REMARK   83  A    between atoms: _233  and  _236
REMARK   84  A    between atoms: _236  and  _237
REMARK   85  A    between atoms: _242  and  _244
REMARK   86  A    between atoms: _244  and  _245
REMARK   87  A    between atoms: _244  and  _247
REMARK   88  A    between atoms: _247  and  _248
REMARK   89  A    between atoms: _254  and  _256
REMARK   90  A    between atoms: _256  and  _257
REMARK   91  A    between atoms: _259  and  _261
REMARK   92  A    between atoms: _261  and  _262
REMARK   93  A    between atoms: _261  and  _264
REMARK   94  A    between atoms: _267  and  _269
REMARK   95  A    between atoms: _269  and  _270
REMARK   96  A    between atoms: _269  and  _272
REMARK   97  A    between atoms: _272  and  _273
REMARK   98  A    between atoms: _273  and  _274
REMARK   99  A    between atoms: _279  and  _281
REMARK  100  A    between atoms: _281  and  _282
REMARK  101  A    between atoms: _281  and  _284
REMARK  102  A    between atoms: _284  and  _285
REMARK  103  A    between atoms: _288  and  _290
REMARK  104  A    between atoms: _290  and  _291
REMARK  105  A    between atoms: _294  and  _296
REMARK  106  A    between atoms: _296  and  _297
REMARK  107  A    between atoms: _296  and  _299
REMARK  108  A    between atoms: _302  and  _304
REMARK  109  A    between atoms: _304  and  _305
REMARK  110  A    between atoms: _304  and  _307
REMARK  111  A    between atoms: _307  and  _308
REMARK  112  A    between atoms: _311  and  _313
REMARK  113  A    between atoms: _313  and  _314
REMARK  114  A    between atoms: _316  and  _318
REMARK  115  A    between atoms: _318  and  _319
REMARK  116  A    between atoms: _318  and  _321
REMARK  117  A    between atoms: _321  and  _322
REMARK  118  A    between atoms: _324  and  _326
REMARK  119  A    between atoms: _326  and  _327
REMARK  120  A    between atoms: _326  and  _329
REMARK  121  A    between atoms: _329  and  _330
REMARK  122  A    between atoms: _333  and  _335
REMARK  123  A    between atoms: _335  and  _336
REMARK  124  A    between atoms: _335  and  _338
REMARK  125  A    between atoms: _338  and  _339
REMARK  126  A    between atoms: _342  and  _344
REMARK  127  A    between atoms: _344  and  _345
REMARK  128  A    between atoms: _344  and  _347
REMARK  129  A    between atoms: _347  and  _348
REMARK  130  A    between atoms: _352  and  _353
REMARK  131  A    between atoms: _359  and  _360
REMARK  132  A    between atoms: _365  and  _367
REMARK  133  A    between atoms: _367  and  _368
REMARK  134  A    between atoms: _367  and  _370
REMARK  135  A    between atoms: _370  and  _371
REMARK  136  A    between atoms: _374  and  _376
REMARK  137  A    between atoms: _376  and  _377
REMARK  138  A    between atoms: _376  and  _379
REMARK  139  A    between atoms: _379  and  _380
REMARK  140  A    between atoms: _383  and  _385
REMARK  141  A    between atoms: _385  and  _386
REMARK  142  A    between atoms: _385  and  _388
REMARK  143  A    between atoms: _390  and  _392
REMARK  144  A    between atoms: _392  and  _393
REMARK  145  A    between atoms: _392  and  _395
REMARK  146  A    between atoms: _398  and  _400
REMARK  147  A    between atoms: _400  and  _401
REMARK  148  A    between atoms: _400  and  _403
REMARK  149  A    between atoms: _403  and  _404
REMARK  150  A    between atoms: _414  and  _416
REMARK  151  A    between atoms: _416  and  _417
REMARK  152  A    between atoms: _416  and  _419
REMARK  153  A    between atoms: _419  and  _420
REMARK  154  A    between atoms: _425  and  _427
REMARK  155  A    between atoms: _427  and  _428
REMARK  156  A    between atoms: _427  and  _430
REMARK  157  A    between atoms: _430  and  _431
REMARK  158  A    between atoms: _431  and  _432
REMARK  159  A    between atoms: _432  and  _433
REMARK                            x       y       z     vdW  Elec       q    Type
REMARK                         _______ _______ _______ _____ _____    ______ ____
ROOT
ATOM      1  C   UNK A   4     -10.367  -1.369  10.291  0.00  0.00    +0.000 C 
ATOM      2  C   UNK A   4     -10.384  -2.627  11.122  0.00  0.00    +0.000 C 
ATOM      3  O   UNK A   4     -11.059  -2.693  12.157  0.00  0.00    +0.000 OA
ATOM      4  N   VAL A   5      -9.664  -3.630  10.639  0.00  0.00    +0.000 N 
ATOM      5  CA  VAL A   5      -9.628  -4.930  11.284  0.00  0.00    +0.000 C 
ATOM      6  C   VAL A   5      -8.191  -5.396  11.473  0.00  0.00    +0.000 C 
ATOM      7  N   UNK A   6      -8.019  -6.313  12.424  0.00  0.00    +0.000 N 
ATOM      8  H   UNK A   6      -8.775  -6.454  13.125  0.00  0.00    +0.000 HD
ATOM      9  C   UNK A   6      -6.804  -7.133  12.522  0.00  0.00    +0.000 C 
ATOM     10  C   UNK A   6      -6.153  -6.906  13.877  0.00  0.00    +0.000 C 
ATOM     11  C   UNK A   6      -5.875  -5.466  14.146  0.00  0.00    +0.000 A 
ATOM     12  C   UNK A   6      -6.692  -4.472  14.569  0.00  0.00    +0.000 A 
ATOM     13  N   UNK A   6      -5.951  -3.316  14.581  0.00  0.00    +0.000 N 
ATOM     14 ZN   UNK A   6      -6.685  -1.557  15.263  0.00  0.00    +0.000 Zn
ATOM     15  N   UNK A   4      -7.458  -0.688  13.612  0.00  0.00    +0.000 N 
ATOM     16  C   UNK A   4      -7.965   0.523  13.475  0.00  0.00    +0.000 A 
ATOM     17  N   UNK A   4      -8.513   0.615  12.271  0.00  0.00    +0.000 NA
ATOM     18  C   UNK A   4      -8.364  -0.590  11.615  0.00  0.00    +0.000 A 
ATOM     19  C   UNK A   4      -7.711  -1.412  12.472  0.00  0.00    +0.000 A 
ATOM     20  C   UNK A   6      -4.713  -3.591  14.202  0.00  0.00    +0.000 A 
ATOM     21  N   UNK A   6      -4.644  -4.877  13.888  0.00  0.00    +0.000 NA
ATOM     22  O   VAL A   5      -7.278  -4.928  10.784  0.00  0.00    +0.000 OA
ATOM     23  H   VAL A   5      -9.109  -3.481   9.772  0.00  0.00    +0.000 HD
ATOM     24  C   UNK A   4      -8.928  -0.840  10.248  0.00  0.00    +0.000 C 
ENDROOT
BRANCH  14  25
ATOM     25  N   UNK A   6      -8.175  -2.318  16.470  0.00  0.00    +0.000 N 
ATOM     26  C   UNK A   6      -7.854  -3.203  17.398  0.00  0.00    +0.000 A 
ATOM     27  N   UNK A   6      -8.959  -3.586  18.020  0.00  0.00    +0.000 NA
ATOM     28  C   UNK A   6     -10.027  -2.912  17.487  0.00  0.00    +0.000 A 
ATOM     29  C   UNK A   6      -9.545  -2.098  16.515  0.00  0.00    +0.000 A 
BRANCH  29  30
ATOM     30  C   UNK A   6     -10.255  -1.143  15.613  0.00  0.00    +0.000 C 
BRANCH  30  31
ATOM     31  C   UNK A   6     -11.762  -1.399  15.547  0.00  0.00    +0.000 C 
BRANCH  31  32
ATOM     32  C   UNK A   6     -12.415  -0.212  14.883  0.00  0.00    +0.000 C 
ATOM     33  N   UNK A   4     -13.401   0.358  15.574  0.00  0.00    +0.000 N 
ATOM     34  H   UNK A   4     -13.701  -0.086  16.465  0.00  0.00    +0.000 HD
ATOM     35  O   UNK A   6     -12.037   0.168  13.762  0.00  0.00    +0.000 OA
BRANCH  33  36
ATOM     36  C   UNK A   4     -14.085   1.584  15.138  0.00  0.00    +0.000 C 
BRANCH  36  37
ATOM     37  C   UNK A   4     -13.446   2.711  15.921  0.00  0.00    +0.000 C 
ATOM     38  O   UNK A   4     -13.578   2.783  17.155  0.00  0.00    +0.000 OA
ATOM     39  N   VAL A   5     -12.705   3.546  15.214  0.00  0.00    +0.000 N 
ATOM     40  H   VAL A   5     -12.720   3.485  14.176  0.00  0.00    +0.000 HD
BRANCH  39  41
ATOM     41  CA  VAL A   5     -11.862   4.557  15.860  0.00  0.00    +0.000 C 
BRANCH  41  42
ATOM     42  C   VAL A   5     -12.569   5.903  15.917  0.00  0.00    +0.000 C 
ATOM     43  N   UNK A   6     -12.632   6.507  17.110  0.00  0.00    +0.000 N 
ATOM     44  H   UNK A   6     -12.178   6.054  17.928  0.00  0.00    +0.000 HD
ATOM     45  O   VAL A   5     -13.030   6.403  14.886  0.00  0.00    +0.000 OA
BRANCH  43  46
ATOM     46  C   UNK A   6     -13.322   7.789  17.300  0.00  0.00    +0.000 C 
BRANCH  46  47
ATOM     47  C   UNK A   6     -12.411   8.783  18.027  0.00  0.00    +0.000 C 
ATOM     48  O   UNK A   6     -11.576   8.360  18.816  0.00  0.00    +0.000 OA
ENDBRANCH  46  47
BRANCH  46  49
ATOM     49  C   UNK A   6     -14.578   7.620  18.151  0.00  0.00    +0.000 C 
BRANCH  49  50
ATOM     50  C   UNK A   6     -15.491   6.499  17.724  0.00  0.00    +0.000 A 
ATOM     51  N   UNK A   6     -15.201   5.167  17.954  0.00  0.00    +0.000 NA
ATOM     52  C   UNK A   6     -16.200   4.418  17.509  0.00  0.00    +0.000 A 
ATOM     53  N   UNK A   6     -17.132   5.216  17.012  0.00  0.00    +0.000 NA
ATOM     54  C   UNK A   6     -16.713   6.522  17.131  0.00  0.00    +0.000 A 
ENDBRANCH  49  50
ENDBRANCH  46  49
ENDBRANCH  43  46
ENDBRANCH  41  42
BRANCH  41  55
ATOM     55  CB  VAL A   5     -10.561   4.730  15.063  0.00  0.00    +0.000 C 
ATOM     56  CG2 VAL A   5      -9.652   5.780  15.738  0.00  0.00    +0.000 C 
ATOM     57  CG1 VAL A   5      -9.837   3.380  14.866  0.00  0.00    +0.000 C 
ENDBRANCH  41  55
ENDBRANCH  39  41
ENDBRANCH  36  37
BRANCH  36  58
ATOM     58  C   UNK A   4     -15.590   1.490  15.394  0.00  0.00    +0.000 C 
BRANCH  58  59
ATOM     59  C   UNK A   4     -16.282   0.442  14.510  0.00  0.00    +0.000 C 
ATOM     60  C   UNK A   4     -17.115  -0.540  15.320  0.00  0.00    +0.000 C 
ATOM     61  C   UNK A   4     -17.153   1.112  13.426  0.00  0.00    +0.000 C 
ENDBRANCH  58  59
ENDBRANCH  36  58
ENDBRANCH  33  36
ENDBRANCH  31  32
BRANCH  31  62
ATOM     62  N   UNK A   6     -11.985  -2.635  14.785  0.00  0.00    +0.000 N 
ATOM     63  C   LEU A   2     -12.624  -3.685  15.285  0.00  0.00    +0.000 C 
ATOM     64  O   LEU A   2     -13.010  -3.752  16.451  0.00  0.00    +0.000 OA
ATOM     65  H   UNK A   6     -11.626  -2.690  13.810  0.00  0.00    +0.000 HD
BRANCH  63  66
ATOM     66  CA  LEU A   2     -12.835  -4.868  14.334  0.00  0.00    +0.000 C 
BRANCH  66  67
ATOM     67  N   LEU A   2     -12.426  -6.115  14.977  0.00  0.00    +0.000 N 
ATOM     68  H   LEU A   2     -13.120  -6.600  15.581  0.00  0.00    +0.000 HD
ATOM     69  C   GLU A   1     -11.226  -6.671  14.842  0.00  0.00    +0.000 C 
ATOM     70  O   GLU A   1     -10.326  -6.221  14.130  0.00  0.00    +0.000 OA
BRANCH  69  71
ATOM     71  CA  GLU A   1     -11.012  -7.922  15.649  0.00  0.00    +0.000 C 
BRANCH  71  72
ATOM     72  N   GLU A   1     -10.493  -8.928  14.750  0.00  0.00    +0.000 NA
ATOM     73  H   GLU A   1      -9.869  -8.649  13.966  0.00  0.00    +0.000 HD
ENDBRANCH  71  72
BRANCH  71  74
ATOM     74  CB  GLU A   1     -10.035  -7.675  16.800  0.00  0.00    +0.000 C 
BRANCH  74  75
ATOM     75  CG  GLU A   1     -10.552  -6.683  17.879  0.00  0.00    +0.000 C 
BRANCH  75  76
ATOM     76  CD  GLU A   1      -9.624  -6.645  19.079  0.00  0.00    +0.000 C 
ATOM     77  OE2 GLU A   1      -9.576  -5.586  19.747  0.00  0.00    +0.000 OA
ATOM     78  OE1 GLU A   1      -8.991  -7.691  19.364  0.00  0.00    +0.000 OA
ENDBRANCH  75  76
ENDBRANCH  74  75
ENDBRANCH  71  74
ENDBRANCH  69  71
ENDBRANCH  66  67
BRANCH  66  79
ATOM     79  CB  LEU A   2     -14.326  -4.977  13.987  0.00  0.00    +0.000 C 
BRANCH  79  80
ATOM     80  CG  LEU A   2     -15.074  -3.668  13.650  0.00  0.00    +0.000 C 
ATOM     81  CD2 LEU A   2     -16.557  -3.989  13.410  0.00  0.00    +0.000 C 
ATOM     82  CD1 LEU A   2     -14.527  -2.991  12.405  0.00  0.00    +0.000 C 
ENDBRANCH  79  80
ENDBRANCH  66  79
ENDBRANCH  63  66
ENDBRANCH  31  62
ENDBRANCH  30  31
ENDBRANCH  29  30
ENDBRANCH  14  25
BRANCH   1  84
ATOM     83  C   UNK A   3     -11.783   0.606  10.232  0.00  0.00    +0.000 C 
ATOM     84  N   UNK A   4     -11.242  -0.406  10.901  0.00  0.00    +0.000 N 
ATOM     85  H   UNK A   4     -11.462  -0.506  11.913  0.00  0.00    +0.000 HD
ATOM     86  O   UNK A   3     -11.544   0.846   9.052  0.00  0.00    +0.000 OA
BRANCH  83  87
ATOM     87  C   UNK A   3     -12.722   1.479  11.048  0.00  0.00    +0.000 C 
BRANCH  87  90
ATOM     88  C   LEU A   2     -12.642   3.894  11.168  0.00  0.00    +0.000 C 
ATOM     89  O   LEU A   2     -12.665   3.896  12.399  0.00  0.00    +0.000 OA
ATOM     90  N   UNK A   3     -12.852   2.802  10.430  0.00  0.00    +0.000 N 
ATOM     91  H   UNK A   3     -13.106   2.889   9.425  0.00  0.00    +0.000 HD
BRANCH  88  92
ATOM     92  CA  LEU A   2     -12.400   5.179  10.422  0.00  0.00    +0.000 C 
BRANCH  92  94
ATOM     93  C   GLU A   1     -12.756   7.535  10.753  0.00  0.00    +0.000 C 
ATOM     94  N   LEU A   2     -12.634   6.331  11.286  0.00  0.00    +0.000 N 
ATOM     95  H   LEU A   2     -12.705   6.206  12.316  0.00  0.00    +0.000 HD
ATOM     96  O   GLU A   1     -12.700   7.715   9.523  0.00  0.00    +0.000 OA
BRANCH  93  97
ATOM     97  CA  GLU A   1     -13.047   8.699  11.704  0.00  0.00    +0.000 C 
BRANCH  97  98
ATOM     98  CB  GLU A   1     -11.744   9.354  12.223  0.00  0.00    +0.000 C 
ATOM     99  CG2 GLU A   1     -11.013   8.448  13.241  0.00  0.00    +0.000 C 
BRANCH  98 100
ATOM    100  CG1 GLU A   1     -10.839   9.680  11.030  0.00  0.00    +0.000 C 
ATOM    101  CD1 GLU A   1      -9.603  10.513  11.394  0.00  0.00    +0.000 C 
ENDBRANCH  98 100
ENDBRANCH  97  98
BRANCH  97 102
ATOM    102  N   GLU A   1     -13.933   8.301  12.806  0.00  0.00    +0.000 NA
ATOM    103  H   GLU A   1     -13.566   7.674  13.551  0.00  0.00    +0.000 HD
ENDBRANCH  97 102
ENDBRANCH  93  97
ENDBRANCH  92  94
BRANCH  92 104
ATOM    104  CB  LEU A   2     -10.951   5.176   9.896  0.00  0.00    +0.000 C 
BRANCH 104 105
ATOM    105  CG  LEU A   2      -9.875   5.321  10.990  0.00  0.00    +0.000 C 
BRANCH 105 106
ATOM    106  CD  LEU A   2      -9.111   4.050  11.282  0.00  0.00    +0.000 C 
ATOM    107  NE2 LEU A   2      -7.851   4.219  11.673  0.00  0.00    +0.000 N 
ATOM    108 HE21 LEU A   2      -7.262   3.393  11.902  0.00  0.00    +0.000 HD
ATOM    109 HE22 LEU A   2      -7.454   5.177  11.750  0.00  0.00    +0.000 HD
ATOM    110  OE1 LEU A   2      -9.637   2.935  11.172  0.00  0.00    +0.000 OA
ENDBRANCH 105 106
ENDBRANCH 104 105
ENDBRANCH  92 104
ENDBRANCH  88  92
ENDBRANCH  87  90
BRANCH  87 111
ATOM    111  C   UNK A   3     -14.097   0.786  11.277  0.00  0.00    +0.000 C 
BRANCH 111 112
ATOM    112  C   UNK A   3     -14.824   0.351  10.011  0.00  0.00    +0.000 A 
ATOM    113  C   UNK A   3     -15.945   1.046   9.584  0.00  0.00    +0.000 A 
ATOM    114  C   UNK A   3     -16.651   0.642   8.456  0.00  0.00    +0.000 A 
ATOM    115  C   UNK A   3     -16.252  -0.491   7.759  0.00  0.00    +0.000 A 
ATOM    116  C   UNK A   3     -15.145  -1.224   8.196  0.00  0.00    +0.000 A 
ATOM    117  C   UNK A   3     -14.449  -0.809   9.330  0.00  0.00    +0.000 A 
ENDBRANCH 111 112
ENDBRANCH  87 111
ENDBRANCH  83  87
ENDBRANCH   1  84
BRANCH   9 118
ATOM    118  C   UNK A   6      -7.235  -8.590  12.391  0.00  0.00    +0.000 C 
ATOM    119  O   UNK A   6      -8.307  -8.957  12.893  0.00  0.00    +0.000 OA
ENDBRANCH   9 118
BRANCH   5 120
ATOM    120  CB  VAL A   5     -10.333  -5.996  10.421  0.00  0.00    +0.000 C 
BRANCH 120 121
ATOM    121  CG  VAL A   5     -11.787  -5.697  10.094  0.00  0.00    +0.000 A 
ATOM    122  CD2 VAL A   5     -12.824  -6.361  10.757  0.00  0.00    +0.000 A 
ATOM    123  CE2 VAL A   5     -14.149  -6.107  10.419  0.00  0.00    +0.000 A 
ATOM    124  CZ  VAL A   5     -14.449  -5.227   9.398  0.00  0.00    +0.000 A 
ATOM    125  CE1 VAL A   5     -13.439  -4.566   8.733  0.00  0.00    +0.000 A 
ATOM    126  CD1 VAL A   5     -12.110  -4.811   9.076  0.00  0.00    +0.000 A 
ENDBRANCH 120 121
ENDBRANCH   5 120
TORSDOF 42
REMARK  Name = ../refined-set-2016/3n4b/3n4b_pocket.pdb
REMARK  159 active torsions:
REMARK  status: ('A' for Active; 'I' for Inactive)
REMARK    1  A    between atoms: _1  and  _3
REMARK    2  A    between atoms: _3  and  _4
REMARK    3  A    between atoms: _3  and  _6
REMARK    4  A    between atoms: _6  and  _7
REMARK    5  A    between atoms: _17  and  _19
REMARK    6  A    between atoms: _19  and  _20
REMARK    7  A    between atoms: _19  and  _22
REMARK    8  A    between atoms: _22  and  _23
REMARK    9  A    between atoms: _28  and  _29
REMARK   10  A    between atoms: _31  and  _33
REMARK   11  A    between atoms: _33  and  _34
REMARK   12  A    between atoms: _33  and  _36
REMARK   13  A    between atoms: _36  and  _37
REMARK   14  A    between atoms: _43  and  _45
REMARK   15  A    between atoms: _45  and  _46
REMARK   16  A    between atoms: _45  and  _48
REMARK   17  A    between atoms: _48  and  _49
REMARK   18  A    between atoms: _52  and  _53
REMARK   19  A    between atoms: _58  and  _60
REMARK   20  A    between atoms: _60  and  _61
REMARK   21  A    between atoms: _60  and  _63
REMARK   22  A    between atoms: _63  and  _64
REMARK   23  A    between atoms: _69  and  _71
REMARK   24  A    between atoms: _71  and  _72
REMARK   25  A    between atoms: _75  and  _77
REMARK   26  A    between atoms: _77  and  _78
REMARK   27  A    between atoms: _77  and  _80
REMARK   28  A    between atoms: _80  and  _81
REMARK   29  A    between atoms: _86  and  _88
REMARK   30  A    between atoms: _88  and  _89
REMARK   31  A    between atoms: _88  and  _91
REMARK   32  A    between atoms: _91  and  _92
REMARK   33  A    between atoms: _92  and  _93
REMARK   34  A    between atoms: _96  and  _98
REMARK   35  A    between atoms: _98  and  _99
REMARK   36  A    between atoms: _98  and  _101
REMARK   37  A    between atoms: _101  and  _102
REMARK   38  A    between atoms: _105  and  _107
REMARK   39  A    between atoms: _107  and  _108
REMARK   40  A    between atoms: _107  and  _110
REMARK   41  A    between atoms: _110  and  _111
REMARK   42  A    between atoms: _111  and  _112
REMARK   43  A    between atoms: _117  and  _119
REMARK   44  A    between atoms: _119  and  _120
REMARK   45  A    between atoms: _119  and  _122
REMARK   46  A    between atoms: _122  and  _123
REMARK   47  A    between atoms: _129  and  _131
REMARK   48  A    between atoms: _142  and  _145
REMARK   49  A    between atoms: _145  and  _146
REMARK   50  A    between atoms: _154  and  _155
REMARK   51  A    between atoms: _163  and  _165
REMARK   52  A    between atoms: _165  and  _166
REMARK   53  A    between atoms: _165  and  _168
REMARK   54  A    between atoms: _168  and  _169
REMARK   55  A    between atoms: _169  and  _170
REMARK   56  A    between atoms: _173  and  _175
REMARK   57  A    between atoms: _175  and  _176
REMARK   58  A    between atoms: _175  and  _178
REMARK   59  A    between atoms: _178  and  _179
REMARK   60  A    between atoms: _184  and  _186
REMARK   61  A    between atoms: _186  and  _187
REMARK   62  A    between atoms: _186  and  _189
REMARK   63  A    between atoms: _189  and  _190
REMARK   64  A    between atoms: _190  and  _191
REMARK   65  A    between atoms: _194  and  _196
REMARK   66  A    between atoms: _196  and  _197
REMARK   67  A    between atoms: _196  and  _199
REMARK   68  A    between atoms: _199  and  _200
REMARK   69  A    between atoms: _203  and  _205
REMARK   70  A    between atoms: _205  and  _206
REMARK   71  A    between atoms: _205  and  _208
REMARK   72  A    between atoms: _208  and  _209
REMARK   73  A    between atoms: _210  and  ZN_442
REMARK   74  A    between atoms: _214  and  _216
REMARK   75  A    between atoms: _216  and  _217
REMARK   76  A    between atoms: _216  and  _219
REMARK   77  A    between atoms: _219  and  _220
REMARK   78  A    between atoms: _223  and  _225
REMARK   79  A    between atoms: _225  and  _226
REMARK   80  A    between atoms: _225  and  _228
REMARK   81  A    between atoms: _231  and  _233
REMARK   82  A    between atoms: _233  and  _234
REMARK   83  A    between atoms: _233  and  _236
REMARK   84  A    between atoms: _236  and  _237
REMARK   85  A    between atoms: _242  and  _244
REMARK   86  A    between atoms: _244  and  _245
REMARK   87  A    between atoms: _244  and  _247
REMARK   88  A    between atoms: _247  and  _248
REMARK   89  A    between atoms: _254  and  _256
REMARK   90  A    between atoms: _256  and  _257
REMARK   91  A    between atoms: _259  and  _261
REMARK   92  A    between atoms: _261  and  _262
REMARK   93  A    between atoms: _261  and  _264
REMARK   94  A    between atoms: _267  and  _269
REMARK   95  A    between atoms: _269  and  _270
REMARK   96  A    between atoms: _269  and  _272
REMARK   97  A    between atoms: _272  and  _273
REMARK   98  A    between atoms: _273  and  _274
REMARK   99  A    between atoms: _279  and  _281
REMARK  100  A    between atoms: _281  and  _282
REMARK  101  A    between atoms: _281  and  _284
REMARK  102  A    between atoms: _284  and  _285
REMARK  103  A    between atoms: _288  and  _290
REMARK  104  A    between atoms: _290  and  _291
REMARK  105  A    between atoms: _294  and  _296
REMARK  106  A    between atoms: _296  and  _297
REMARK  107  A    between atoms: _296  and  _299
REMARK  108  A    between atoms: _302  and  _304
REMARK  109  A    between atoms: _304  and  _305
REMARK  110  A    between atoms: _304  and  _307
REMARK  111  A    between atoms: _307  and  _308
REMARK  112  A    between atoms: _311  and  _313
REMARK  113  A    between atoms: _313  and  _314
REMARK  114  A    between atoms: _316  and  _318
REMARK  115  A    between atoms: _318  and  _319
REMARK  116  A    between atoms: _318  and  _321
REMARK  117  A    between atoms: _321  and  _322
REMARK  118  A    between atoms: _324  and  _326
REMARK  119  A    between atoms: _326  and  _327
REMARK  120  A    between atoms: _326  and  _329
REMARK  121  A    between atoms: _329  and  _330
REMARK  122  A    between atoms: _333  and  _335
REMARK  123  A    between atoms: _335  and  _336
REMARK  124  A    between atoms: _335  and  _338
REMARK  125  A    between atoms: _338  and  _339
REMARK  126  A    between atoms: _342  and  _344
REMARK  127  A    between atoms: _344  and  _345
REMARK  128  A    between atoms: _344  and  _347
REMARK  129  A    between atoms: _347  and  _348
REMARK  130  A    between atoms: _352  and  _353
REMARK  131  A    between atoms: _359  and  _360
REMARK  132  A    between atoms: _365  and  _367
REMARK  133  A    between atoms: _367  and  _368
REMARK  134  A    between atoms: _367  and  _370
REMARK  135  A    between atoms: _370  and  _371
REMARK  136  A    between atoms: _374  and  _376
REMARK  137  A    between atoms: _376  and  _377
REMARK  138  A    between atoms: _376  and  _379
REMARK  139  A    between atoms: _379  and  _380
REMARK  140  A    between atoms: _383  and  _385
REMARK  141  A    between atoms: _385  and  _386
REMARK  142  A    between atoms: _385  and  _388
REMARK  143  A    between atoms: _390  and  _392
REMARK  144  A    between atoms: _392  and  _393
REMARK  145  A    between atoms: _392  and  _395
REMARK  146  A    between atoms: _398  and  _400
REMARK  147  A    between atoms: _400  and  _401
REMARK  148  A    between atoms: _400  and  _403
REMARK  149  A    between atoms: _403  and  _404
REMARK  150  A    between atoms: _414  and  _416
REMARK  151  A    between atoms: _416  and  _417
REMARK  152  A    between atoms: _416  and  _419
REMARK  153  A    between atoms: _419  and  _420
REMARK  154  A    between atoms: _425  and  _427
REMARK  155  A    between atoms: _427  and  _428
REMARK  156  A    between atoms: _427  and  _430
REMARK  157  A    between atoms: _430  and  _431
REMARK  158  A    between atoms: _431  and  _432
REMARK  159  A    between atoms: _432  and  _433
REMARK                            x       y       z     vdW  Elec       q    Type
REMARK                         _______ _______ _______ _____ _____    ______ ____
ROOT
ATOM      1  C   GLU A   1      -5.806  -8.455  20.966  0.00  0.00    +0.238 C 
ATOM      2  O   GLU A   1      -5.008  -8.981  21.732  0.00  0.00    -0.274 OA
ATOM      3  N   HIS A   2      -7.001  -8.043  21.377  0.00  0.00    -0.298 N 
ATOM      4  H   HIS A   2      -7.596  -7.459  20.755  0.00  0.00    +0.150 HD
ENDROOT
BRANCH   1   5
ATOM      5  CA  GLU A   1      -5.481  -8.284  19.481  0.00  0.00    +0.145 C 
BRANCH   5   6
ATOM      6  N   GLU A   1      -6.516  -8.957  18.682  0.00  0.00    -0.238 NA
ATOM      7  H   GLU A   1      -7.387  -8.438  18.451  0.00  0.00    +0.142 HD
ENDBRANCH   5   6
BRANCH   5   8
ATOM      8  CB  GLU A   1      -5.445  -6.819  19.089  0.00  0.00    +0.038 C 
BRANCH   8   9
ATOM      9  CG  GLU A   1      -5.091  -6.644  17.595  0.00  0.00    +0.116 C 
BRANCH   9  10
ATOM     10  CD  GLU A   1      -4.372  -5.352  17.298  0.00  0.00    +0.365 C 
ATOM     11  OE2 GLU A   1      -4.973  -4.303  17.513  0.00  0.00    -0.246 OA
ATOM     12  OE1 GLU A   1      -3.187  -5.378  16.881  0.00  0.00    -0.246 OA
ENDBRANCH   9  10
ENDBRANCH   8   9
ENDBRANCH   5   8
ENDBRANCH   1   5
BRANCH   3  13
ATOM     13  CA  HIS A   2      -7.473  -8.416  22.709  0.00  0.00    +0.143 C 
BRANCH  13  14
ATOM     14  C   HIS A   2      -7.742  -9.892  22.740  0.00  0.00    +0.227 C 
ATOM     15  O   HIS A   2      -8.008 -10.509  21.698  0.00  0.00    -0.286 OA
ENDBRANCH  13  14
BRANCH  13  16
ATOM     16  CB  HIS A   2      -8.721  -7.616  23.094  0.00  0.00    +0.075 C 
BRANCH  16  17
ATOM     17  CG  HIS A   2      -8.424  -6.168  23.268  0.00  0.00    +0.082 A 
ATOM     18  CD2 HIS A   2      -7.986  -5.477  24.349  0.00  0.00    +0.115 A 
ATOM     19  NE2 HIS A   2      -7.755  -4.189  23.938  0.00  0.00    -0.221 NA
ATOM     20  CE1 HIS A   2      -8.028  -4.093  22.644  0.00  0.00    +0.199 A 
ATOM     21  ND1 HIS A   2      -8.444  -5.276  22.215  0.00  0.00    -0.227 NA
ENDBRANCH  16  17
ENDBRANCH  13  16
ENDBRANCH   3  13
TORSDOF 9
REMARK  Name = ../refined-set-2016/3n4b/3n4b_pocket.pdb
REMARK  159 active torsions:
REMARK  status: ('A' for Active; 'I' for Inactive)
REMARK    1  A    between atoms: _1  and  _3
REMARK    2  A    between atoms: _3  and  _4
REMARK    3  A    between atoms: _3  and  _6
REMARK    4  A    between atoms: _6  and  _7
REMARK    5  A    between atoms: _17  and  _19
REMARK    6  A    between atoms: _19  and  _20
REMARK    7  A    between atoms: _19  and  _22
REMARK    8  A    between atoms: _22  and  _23
REMARK    9  A    between atoms: _28  and  _29
REMARK   10  A    between atoms: _31  and  _33
REMARK   11  A    between atoms: _33  and  _34
REMARK   12  A    between atoms: _33  and  _36
REMARK   13  A    between atoms: _36  and  _37
REMARK   14  A    between atoms: _43  and  _45
REMARK   15  A    between atoms: _45  and  _46
REMARK   16  A    between atoms: _45  and  _48
REMARK   17  A    between atoms: _48  and  _49
REMARK   18  A    between atoms: _52  and  _53
REMARK   19  A    between atoms: _58  and  _60
REMARK   20  A    between atoms: _60  and  _61
REMARK   21  A    between atoms: _60  and  _63
REMARK   22  A    between atoms: _63  and  _64
REMARK   23  A    between atoms: _69  and  _71
REMARK   24  A    between atoms: _71  and  _72
REMARK   25  A    between atoms: _75  and  _77
REMARK   26  A    between atoms: _77  and  _78
REMARK   27  A    between atoms: _77  and  _80
REMARK   28  A    between atoms: _80  and  _81
REMARK   29  A    between atoms: _86  and  _88
REMARK   30  A    between atoms: _88  and  _89
REMARK   31  A    between atoms: _88  and  _91
REMARK   32  A    between atoms: _91  and  _92
REMARK   33  A    between atoms: _92  and  _93
REMARK   34  A    between atoms: _96  and  _98
REMARK   35  A    between atoms: _98  and  _99
REMARK   36  A    between atoms: _98  and  _101
REMARK   37  A    between atoms: _101  and  _102
REMARK   38  A    between atoms: _105  and  _107
REMARK   39  A    between atoms: _107  and  _108
REMARK   40  A    between atoms: _107  and  _110
REMARK   41  A    between atoms: _110  and  _111
REMARK   42  A    between atoms: _111  and  _112
REMARK   43  A    between atoms: _117  and  _119
REMARK   44  A    between atoms: _119  and  _120
REMARK   45  A    between atoms: _119  and  _122
REMARK   46  A    between atoms: _122  and  _123
REMARK   47  A    between atoms: _129  and  _131
REMARK   48  A    between atoms: _142  and  _145
REMARK   49  A    between atoms: _145  and  _146
REMARK   50  A    between atoms: _154  and  _155
REMARK   51  A    between atoms: _163  and  _165
REMARK   52  A    between atoms: _165  and  _166
REMARK   53  A    between atoms: _165  and  _168
REMARK   54  A    between atoms: _168  and  _169
REMARK   55  A    between atoms: _169  and  _170
REMARK   56  A    between atoms: _173  and  _175
REMARK   57  A    between atoms: _175  and  _176
REMARK   58  A    between atoms: _175  and  _178
REMARK   59  A    between atoms: _178  and  _179
REMARK   60  A    between atoms: _184  and  _186
REMARK   61  A    between atoms: _186  and  _187
REMARK   62  A    between atoms: _186  and  _189
REMARK   63  A    between atoms: _189  and  _190
REMARK   64  A    between atoms: _190  and  _191
REMARK   65  A    between atoms: _194  and  _196
REMARK   66  A    between atoms: _196  and  _197
REMARK   67  A    between atoms: _196  and  _199
REMARK   68  A    between atoms: _199  and  _200
REMARK   69  A    between atoms: _203  and  _205
REMARK   70  A    between atoms: _205  and  _206
REMARK   71  A    between atoms: _205  and  _208
REMARK   72  A    between atoms: _208  and  _209
REMARK   73  A    between atoms: _210  and  ZN_442
REMARK   74  A    between atoms: _214  and  _216
REMARK   75  A    between atoms: _216  and  _217
REMARK   76  A    between atoms: _216  and  _219
REMARK   77  A    between atoms: _219  and  _220
REMARK   78  A    between atoms: _223  and  _225
REMARK   79  A    between atoms: _225  and  _226
REMARK   80  A    between atoms: _225  and  _228
REMARK   81  A    between atoms: _231  and  _233
REMARK   82  A    between atoms: _233  and  _234
REMARK   83  A    between atoms: _233  and  _236
REMARK   84  A    between atoms: _236  and  _237
REMARK   85  A    between atoms: _242  and  _244
REMARK   86  A    between atoms: _244  and  _245
REMARK   87  A    between atoms: _244  and  _247
REMARK   88  A    between atoms: _247  and  _248
REMARK   89  A    between atoms: _254  and  _256
REMARK   90  A    between atoms: _256  and  _257
REMARK   91  A    between atoms: _259  and  _261
REMARK   92  A    between atoms: _261  and  _262
REMARK   93  A    between atoms: _261  and  _264
REMARK   94  A    between atoms: _267  and  _269
REMARK   95  A    between atoms: _269  and  _270
REMARK   96  A    between atoms: _269  and  _272
REMARK   97  A    between atoms: _272  and  _273
REMARK   98  A    between atoms: _273  and  _274
REMARK   99  A    between atoms: _279  and  _281
REMARK  100  A    between atoms: _281  and  _282
REMARK  101  A    between atoms: _281  and  _284
REMARK  102  A    between atoms: _284  and  _285
REMARK  103  A    between atoms: _288  and  _290
REMARK  104  A    between atoms: _290  and  _291
REMARK  105  A    between atoms: _294  and  _296
REMARK  106  A    between atoms: _296  and  _297
REMARK  107  A    between atoms: _296  and  _299
REMARK  108  A    between atoms: _302  and  _304
REMARK  109  A    between atoms: _304  and  _305
REMARK  110  A    between atoms: _304  and  _307
REMARK  111  A    between atoms: _307  and  _308
REMARK  112  A    between atoms: _311  and  _313
REMARK  113  A    between atoms: _313  and  _314
REMARK  114  A    between atoms: _316  and  _318
REMARK  115  A    between atoms: _318  and  _319
REMARK  116  A    between atoms: _318  and  _321
REMARK  117  A    between atoms: _321  and  _322
REMARK  118  A    between atoms: _324  and  _326
REMARK  119  A    between atoms: _326  and  _327
REMARK  120  A    between atoms: _326  and  _329
REMARK  121  A    between atoms: _329  and  _330
REMARK  122  A    between atoms: _333  and  _335
REMARK  123  A    between atoms: _335  and  _336
REMARK  124  A    between atoms: _335  and  _338
REMARK  125  A    between atoms: _338  and  _339
REMARK  126  A    between atoms: _342  and  _344
REMARK  127  A    between atoms: _344  and  _345
REMARK  128  A    between atoms: _344  and  _347
REMARK  129  A    between atoms: _347  and  _348
REMARK  130  A    between atoms: _352  and  _353
REMARK  131  A    between atoms: _359  and  _360
REMARK  132  A    between atoms: _365  and  _367
REMARK  133  A    between atoms: _367  and  _368
REMARK  134  A    between atoms: _367  and  _370
REMARK  135  A    between atoms: _370  and  _371
REMARK  136  A    between atoms: _374  and  _376
REMARK  137  A    between atoms: _376  and  _377
REMARK  138  A    between atoms: _376  and  _379
REMARK  139  A    between atoms: _379  and  _380
REMARK  140  A    between atoms: _383  and  _385
REMARK  141  A    between atoms: _385  and  _386
REMARK  142  A    between atoms: _385  and  _388
REMARK  143  A    between atoms: _390  and  _392
REMARK  144  A    between atoms: _392  and  _393
REMARK  145  A    between atoms: _392  and  _395
REMARK  146  A    between atoms: _398  and  _400
REMARK  147  A    between atoms: _400  and  _401
REMARK  148  A    between atoms: _400  and  _403
REMARK  149  A    between atoms: _403  and  _404
REMARK  150  A    between atoms: _414  and  _416
REMARK  151  A    between atoms: _416  and  _417
REMARK  152  A    between atoms: _416  and  _419
REMARK  153  A    between atoms: _419  and  _420
REMARK  154  A    between atoms: _425  and  _427
REMARK  155  A    between atoms: _427  and  _428
REMARK  156  A    between atoms: _427  and  _430
REMARK  157  A    between atoms: _430  and  _431
REMARK  158  A    between atoms: _431  and  _432
REMARK  159  A    between atoms: _432  and  _433
REMARK                            x       y       z     vdW  Elec       q    Type
REMARK                         _______ _______ _______ _____ _____    ______ ____
ROOT
ATOM      1  CA  PHE A   1      -7.648  13.708  15.134  0.00  0.00    +0.149 C 
ENDROOT
BRANCH   1   2
ATOM      2  C   PHE A   1      -6.182  13.816  15.531  0.00  0.00    +0.239 C 
ATOM      3  O   PHE A   1      -5.753  13.194  16.507  0.00  0.00    -0.274 OA
ATOM      4  N   GLY A   2      -5.406  14.616  14.799  0.00  0.00    -0.297 N 
ATOM      5  H   GLY A   2      -5.810  15.155  14.006  0.00  0.00    +0.150 HD
BRANCH   4   6
ATOM      6  CA  GLY A   2      -3.998  14.729  15.115  0.00  0.00    +0.163 C 
BRANCH   6   7
ATOM      7  C   GLY A   2      -3.735  15.310  16.503  0.00  0.00    +0.229 C 
ATOM      8  O   GLY A   2      -2.725  14.981  17.141  0.00  0.00    -0.286 OA
ENDBRANCH   6   7
ENDBRANCH   4   6
ENDBRANCH   1   2
BRANCH   1   9
ATOM      9  N   PHE A   1      -8.173  15.006  14.744  0.00  0.00    -0.238 NA
ATOM     10  H   PHE A   1      -8.503  15.140  13.767  0.00  0.00    +0.142 HD
ENDBRANCH   1   9
BRANCH   1  11
ATOM     11  CB  PHE A   1      -7.813  12.728  13.967  0.00  0.00    +0.053 C 
BRANCH  11  12
ATOM     12  CG  PHE A   1      -7.204  11.373  14.221  0.00  0.00    -0.020 A 
ATOM     13  CD2 PHE A   1      -7.903  10.420  14.955  0.00  0.00    -0.004 A 
ATOM     14  CE2 PHE A   1      -7.367   9.150  15.202  0.00  0.00    -0.000 A 
ATOM     15  CZ  PHE A   1      -6.098   8.843  14.718  0.00  0.00    -0.000 A 
ATOM     16  CE1 PHE A   1      -5.377   9.807  13.981  0.00  0.00    -0.000 A 
ATOM     17  CD1 PHE A   1      -5.940  11.066  13.752  0.00  0.00    -0.004 A 
ENDBRANCH  11  12
ENDBRANCH   1  11
TORSDOF 6
REMARK  Name = ../refined-set-2016/3n4b/3n4b_pocket.pdb
REMARK  159 active torsions:
REMARK  status: ('A' for Active; 'I' for Inactive)
REMARK    1  A    between atoms: _1  and  _3
REMARK    2  A    between atoms: _3  and  _4
REMARK    3  A    between atoms: _3  and  _6
REMARK    4  A    between atoms: _6  and  _7
REMARK    5  A    between atoms: _17  and  _19
REMARK    6  A    between atoms: _19  and  _20
REMARK    7  A    between atoms: _19  and  _22
REMARK    8  A    between atoms: _22  and  _23
REMARK    9  A    between atoms: _28  and  _29
REMARK   10  A    between atoms: _31  and  _33
REMARK   11  A    between atoms: _33  and  _34
REMARK   12  A    between atoms: _33  and  _36
REMARK   13  A    between atoms: _36  and  _37
REMARK   14  A    between atoms: _43  and  _45
REMARK   15  A    between atoms: _45  and  _46
REMARK   16  A    between atoms: _45  and  _48
REMARK   17  A    between atoms: _48  and  _49
REMARK   18  A    between atoms: _52  and  _53
REMARK   19  A    between atoms: _58  and  _60
REMARK   20  A    between atoms: _60  and  _61
REMARK   21  A    between atoms: _60  and  _63
REMARK   22  A    between atoms: _63  and  _64
REMARK   23  A    between atoms: _69  and  _71
REMARK   24  A    between atoms: _71  and  _72
REMARK   25  A    between atoms: _75  and  _77
REMARK   26  A    between atoms: _77  and  _78
REMARK   27  A    between atoms: _77  and  _80
REMARK   28  A    between atoms: _80  and  _81
REMARK   29  A    between atoms: _86  and  _88
REMARK   30  A    between atoms: _88  and  _89
REMARK   31  A    between atoms: _88  and  _91
REMARK   32  A    between atoms: _91  and  _92
REMARK   33  A    between atoms: _92  and  _93
REMARK   34  A    between atoms: _96  and  _98
REMARK   35  A    between atoms: _98  and  _99
REMARK   36  A    between atoms: _98  and  _101
REMARK   37  A    between atoms: _101  and  _102
REMARK   38  A    between atoms: _105  and  _107
REMARK   39  A    between atoms: _107  and  _108
REMARK   40  A    between atoms: _107  and  _110
REMARK   41  A    between atoms: _110  and  _111
REMARK   42  A    between atoms: _111  and  _112
REMARK   43  A    between atoms: _117  and  _119
REMARK   44  A    between atoms: _119  and  _120
REMARK   45  A    between atoms: _119  and  _122
REMARK   46  A    between atoms: _122  and  _123
REMARK   47  A    between atoms: _129  and  _131
REMARK   48  A    between atoms: _142  and  _145
REMARK   49  A    between atoms: _145  and  _146
REMARK   50  A    between atoms: _154  and  _155
REMARK   51  A    between atoms: _163  and  _165
REMARK   52  A    between atoms: _165  and  _166
REMARK   53  A    between atoms: _165  and  _168
REMARK   54  A    between atoms: _168  and  _169
REMARK   55  A    between atoms: _169  and  _170
REMARK   56  A    between atoms: _173  and  _175
REMARK   57  A    between atoms: _175  and  _176
REMARK   58  A    between atoms: _175  and  _178
REMARK   59  A    between atoms: _178  and  _179
REMARK   60  A    between atoms: _184  and  _186
REMARK   61  A    between atoms: _186  and  _187
REMARK   62  A    between atoms: _186  and  _189
REMARK   63  A    between atoms: _189  and  _190
REMARK   64  A    between atoms: _190  and  _191
REMARK   65  A    between atoms: _194  and  _196
REMARK   66  A    between atoms: _196  and  _197
REMARK   67  A    between atoms: _196  and  _199
REMARK   68  A    between atoms: _199  and  _200
REMARK   69  A    between atoms: _203  and  _205
REMARK   70  A    between atoms: _205  and  _206
REMARK   71  A    between atoms: _205  and  _208
REMARK   72  A    between atoms: _208  and  _209
REMARK   73  A    between atoms: _210  and  ZN_442
REMARK   74  A    between atoms: _214  and  _216
REMARK   75  A    between atoms: _216  and  _217
REMARK   76  A    between atoms: _216  and  _219
REMARK   77  A    between atoms: _219  and  _220
REMARK   78  A    between atoms: _223  and  _225
REMARK   79  A    between atoms: _225  and  _226
REMARK   80  A    between atoms: _225  and  _228
REMARK   81  A    between atoms: _231  and  _233
REMARK   82  A    between atoms: _233  and  _234
REMARK   83  A    between atoms: _233  and  _236
REMARK   84  A    between atoms: _236  and  _237
REMARK   85  A    between atoms: _242  and  _244
REMARK   86  A    between atoms: _244  and  _245
REMARK   87  A    between atoms: _244  and  _247
REMARK   88  A    between atoms: _247  and  _248
REMARK   89  A    between atoms: _254  and  _256
REMARK   90  A    between atoms: _256  and  _257
REMARK   91  A    between atoms: _259  and  _261
REMARK   92  A    between atoms: _261  and  _262
REMARK   93  A    between atoms: _261  and  _264
REMARK   94  A    between atoms: _267  and  _269
REMARK   95  A    between atoms: _269  and  _270
REMARK   96  A    between atoms: _269  and  _272
REMARK   97  A    between atoms: _272  and  _273
REMARK   98  A    between atoms: _273  and  _274
REMARK   99  A    between atoms: _279  and  _281
REMARK  100  A    between atoms: _281  and  _282
REMARK  101  A    between atoms: _281  and  _284
REMARK  102  A    between atoms: _284  and  _285
REMARK  103  A    between atoms: _288  and  _290
REMARK  104  A    between atoms: _290  and  _291
REMARK  105  A    between atoms: _294  and  _296
REMARK  106  A    between atoms: _296  and  _297
REMARK  107  A    between atoms: _296  and  _299
REMARK  108  A    between atoms: _302  and  _304
REMARK  109  A    between atoms: _304  and  _305
REMARK  110  A    between atoms: _304  and  _307
REMARK  111  A    between atoms: _307  and  _308
REMARK  112  A    between atoms: _311  and  _313
REMARK  113  A    between atoms: _313  and  _314
REMARK  114  A    between atoms: _316  and  _318
REMARK  115  A    between atoms: _318  and  _319
REMARK  116  A    between atoms: _318  and  _321
REMARK  117  A    between atoms: _321  and  _322
REMARK  118  A    between atoms: _324  and  _326
REMARK  119  A    between atoms: _326  and  _327
REMARK  120  A    between atoms: _326  and  _329
REMARK  121  A    between atoms: _329  and  _330
REMARK  122  A    between atoms: _333  and  _335
REMARK  123  A    between atoms: _335  and  _336
REMARK  124  A    between atoms: _335  and  _338
REMARK  125  A    between atoms: _338  and  _339
REMARK  126  A    between atoms: _342  and  _344
REMARK  127  A    between atoms: _344  and  _345
REMARK  128  A    between atoms: _344  and  _347
REMARK  129  A    between atoms: _347  and  _348
REMARK  130  A    between atoms: _352  and  _353
REMARK  131  A    between atoms: _359  and  _360
REMARK  132  A    between atoms: _365  and  _367
REMARK  133  A    between atoms: _367  and  _368
REMARK  134  A    between atoms: _367  and  _370
REMARK  135  A    between atoms: _370  and  _371
REMARK  136  A    between atoms: _374  and  _376
REMARK  137  A    between atoms: _376  and  _377
REMARK  138  A    between atoms: _376  and  _379
REMARK  139  A    between atoms: _379  and  _380
REMARK  140  A    between atoms: _383  and  _385
REMARK  141  A    between atoms: _385  and  _386
REMARK  142  A    between atoms: _385  and  _388
REMARK  143  A    between atoms: _390  and  _392
REMARK  144  A    between atoms: _392  and  _393
REMARK  145  A    between atoms: _392  and  _395
REMARK  146  A    between atoms: _398  and  _400
REMARK  147  A    between atoms: _400  and  _401
REMARK  148  A    between atoms: _400  and  _403
REMARK  149  A    between atoms: _403  and  _404
REMARK  150  A    between atoms: _414  and  _416
REMARK  151  A    between atoms: _416  and  _417
REMARK  152  A    between atoms: _416  and  _419
REMARK  153  A    between atoms: _419  and  _420
REMARK  154  A    between atoms: _425  and  _427
REMARK  155  A    between atoms: _427  and  _428
REMARK  156  A    between atoms: _427  and  _430
REMARK  157  A    between atoms: _430  and  _431
REMARK  158  A    between atoms: _431  and  _432
REMARK  159  A    between atoms: _432  and  _433
REMARK                            x       y       z     vdW  Elec       q    Type
REMARK                         _______ _______ _______ _____ _____    ______ ____
ROOT
ATOM      1  C   VAL A   1      -2.768  11.830  20.698  0.00  0.00    +0.238 C 
ATOM      2  O   VAL A   1      -2.052  10.974  21.197  0.00  0.00    -0.274 OA
ATOM      3  N   GLN A   2      -2.634  13.135  20.944  0.00  0.00    -0.298 N 
ATOM      4  H   GLN A   2      -3.254  13.809  20.452  0.00  0.00    +0.150 HD
ENDROOT
BRANCH   1   5
ATOM      5  CA  VAL A   1      -3.889  11.414  19.746  0.00  0.00    +0.145 C 
BRANCH   5   6
ATOM      6  CB  VAL A   1      -3.242  10.737  18.505  0.00  0.00    +0.025 C 
ATOM      7  CG2 VAL A   1      -2.362  11.722  17.722  0.00  0.00    +0.002 C 
ATOM      8  CG1 VAL A   1      -4.347  10.157  17.613  0.00  0.00    +0.002 C 
ENDBRANCH   5   6
BRANCH   5   9
ATOM      9  N   VAL A   1      -4.785  12.518  19.384  0.00  0.00    -0.238 NA
ATOM     10  H   VAL A   1      -4.780  12.910  18.421  0.00  0.00    +0.142 HD
ENDBRANCH   5   9
ENDBRANCH   1   5
BRANCH   3  11
ATOM     11  CA  GLN A   2      -1.642  13.641  21.884  0.00  0.00    +0.137 C 
BRANCH  11  12
ATOM     12  C   GLN A   2      -2.235  13.800  23.291  0.00  0.00    +0.227 C 
ATOM     13  O   GLN A   2      -1.585  14.350  24.193  0.00  0.00    -0.286 OA
ENDBRANCH  11  12
BRANCH  11  14
ATOM     14  CB  GLN A   2      -1.105  14.985  21.382  0.00  0.00    +0.037 C 
BRANCH  14  15
ATOM     15  CG  GLN A   2      -0.620  14.927  19.934  0.00  0.00    +0.087 C 
BRANCH  15  16
ATOM     16  CD  GLN A   2      -0.060  16.248  19.435  0.00  0.00    +0.219 C 
ATOM     17  OE1 GLN A   2       0.689  16.924  20.137  0.00  0.00    -0.275 OA
ATOM     18  NE2 GLN A   2      -0.415  16.614  18.210  0.00  0.00    -0.329 N 
ATOM     19 HE21 GLN A   2      -0.057  17.504  17.809  0.00  0.00    +0.145 HD
ATOM     20 HE22 GLN A   2      -1.051  16.011  17.651  0.00  0.00    +0.145 HD
ENDBRANCH  15  16
ENDBRANCH  14  15
ENDBRANCH  11  14
ENDBRANCH   3  11
TORSDOF 8
REMARK  Name = ../refined-set-2016/3n4b/3n4b_pocket.pdb
REMARK  159 active torsions:
REMARK  status: ('A' for Active; 'I' for Inactive)
REMARK    1  A    between atoms: _1  and  _3
REMARK    2  A    between atoms: _3  and  _4
REMARK    3  A    between atoms: _3  and  _6
REMARK    4  A    between atoms: _6  and  _7
REMARK    5  A    between atoms: _17  and  _19
REMARK    6  A    between atoms: _19  and  _20
REMARK    7  A    between atoms: _19  and  _22
REMARK    8  A    between atoms: _22  and  _23
REMARK    9  A    between atoms: _28  and  _29
REMARK   10  A    between atoms: _31  and  _33
REMARK   11  A    between atoms: _33  and  _34
REMARK   12  A    between atoms: _33  and  _36
REMARK   13  A    between atoms: _36  and  _37
REMARK   14  A    between atoms: _43  and  _45
REMARK   15  A    between atoms: _45  and  _46
REMARK   16  A    between atoms: _45  and  _48
REMARK   17  A    between atoms: _48  and  _49
REMARK   18  A    between atoms: _52  and  _53
REMARK   19  A    between atoms: _58  and  _60
REMARK   20  A    between atoms: _60  and  _61
REMARK   21  A    between atoms: _60  and  _63
REMARK   22  A    between atoms: _63  and  _64
REMARK   23  A    between atoms: _69  and  _71
REMARK   24  A    between atoms: _71  and  _72
REMARK   25  A    between atoms: _75  and  _77
REMARK   26  A    between atoms: _77  and  _78
REMARK   27  A    between atoms: _77  and  _80
REMARK   28  A    between atoms: _80  and  _81
REMARK   29  A    between atoms: _86  and  _88
REMARK   30  A    between atoms: _88  and  _89
REMARK   31  A    between atoms: _88  and  _91
REMARK   32  A    between atoms: _91  and  _92
REMARK   33  A    between atoms: _92  and  _93
REMARK   34  A    between atoms: _96  and  _98
REMARK   35  A    between atoms: _98  and  _99
REMARK   36  A    between atoms: _98  and  _101
REMARK   37  A    between atoms: _101  and  _102
REMARK   38  A    between atoms: _105  and  _107
REMARK   39  A    between atoms: _107  and  _108
REMARK   40  A    between atoms: _107  and  _110
REMARK   41  A    between atoms: _110  and  _111
REMARK   42  A    between atoms: _111  and  _112
REMARK   43  A    between atoms: _117  and  _119
REMARK   44  A    between atoms: _119  and  _120
REMARK   45  A    between atoms: _119  and  _122
REMARK   46  A    between atoms: _122  and  _123
REMARK   47  A    between atoms: _129  and  _131
REMARK   48  A    between atoms: _142  and  _145
REMARK   49  A    between atoms: _145  and  _146
REMARK   50  A    between atoms: _154  and  _155
REMARK   51  A    between atoms: _163  and  _165
REMARK   52  A    between atoms: _165  and  _166
REMARK   53  A    between atoms: _165  and  _168
REMARK   54  A    between atoms: _168  and  _169
REMARK   55  A    between atoms: _169  and  _170
REMARK   56  A    between atoms: _173  and  _175
REMARK   57  A    between atoms: _175  and  _176
REMARK   58  A    between atoms: _175  and  _178
REMARK   59  A    between atoms: _178  and  _179
REMARK   60  A    between atoms: _184  and  _186
REMARK   61  A    between atoms: _186  and  _187
REMARK   62  A    between atoms: _186  and  _189
REMARK   63  A    between atoms: _189  and  _190
REMARK   64  A    between atoms: _190  and  _191
REMARK   65  A    between atoms: _194  and  _196
REMARK   66  A    between atoms: _196  and  _197
REMARK   67  A    between atoms: _196  and  _199
REMARK   68  A    between atoms: _199  and  _200
REMARK   69  A    between atoms: _203  and  _205
REMARK   70  A    between atoms: _205  and  _206
REMARK   71  A    between atoms: _205  and  _208
REMARK   72  A    between atoms: _208  and  _209
REMARK   73  A    between atoms: _210  and  ZN_442
REMARK   74  A    between atoms: _214  and  _216
REMARK   75  A    between atoms: _216  and  _217
REMARK   76  A    between atoms: _216  and  _219
REMARK   77  A    between atoms: _219  and  _220
REMARK   78  A    between atoms: _223  and  _225
REMARK   79  A    between atoms: _225  and  _226
REMARK   80  A    between atoms: _225  and  _228
REMARK   81  A    between atoms: _231  and  _233
REMARK   82  A    between atoms: _233  and  _234
REMARK   83  A    between atoms: _233  and  _236
REMARK   84  A    between atoms: _236  and  _237
REMARK   85  A    between atoms: _242  and  _244
REMARK   86  A    between atoms: _244  and  _245
REMARK   87  A    between atoms: _244  and  _247
REMARK   88  A    between atoms: _247  and  _248
REMARK   89  A    between atoms: _254  and  _256
REMARK   90  A    between atoms: _256  and  _257
REMARK   91  A    between atoms: _259  and  _261
REMARK   92  A    between atoms: _261  and  _262
REMARK   93  A    between atoms: _261  and  _264
REMARK   94  A    between atoms: _267  and  _269
REMARK   95  A    between atoms: _269  and  _270
REMARK   96  A    between atoms: _269  and  _272
REMARK   97  A    between atoms: _272  and  _273
REMARK   98  A    between atoms: _273  and  _274
REMARK   99  A    between atoms: _279  and  _281
REMARK  100  A    between atoms: _281  and  _282
REMARK  101  A    between atoms: _281  and  _284
REMARK  102  A    between atoms: _284  and  _285
REMARK  103  A    between atoms: _288  and  _290
REMARK  104  A    between atoms: _290  and  _291
REMARK  105  A    between atoms: _294  and  _296
REMARK  106  A    between atoms: _296  and  _297
REMARK  107  A    between atoms: _296  and  _299
REMARK  108  A    between atoms: _302  and  _304
REMARK  109  A    between atoms: _304  and  _305
REMARK  110  A    between atoms: _304  and  _307
REMARK  111  A    between atoms: _307  and  _308
REMARK  112  A    between atoms: _311  and  _313
REMARK  113  A    between atoms: _313  and  _314
REMARK  114  A    between atoms: _316  and  _318
REMARK  115  A    between atoms: _318  and  _319
REMARK  116  A    between atoms: _318  and  _321
REMARK  117  A    between atoms: _321  and  _322
REMARK  118  A    between atoms: _324  and  _326
REMARK  119  A    between atoms: _326  and  _327
REMARK  120  A    between atoms: _326  and  _329
REMARK  121  A    between atoms: _329  and  _330
REMARK  122  A    between atoms: _333  and  _335
REMARK  123  A    between atoms: _335  and  _336
REMARK  124  A    between atoms: _335  and  _338
REMARK  125  A    between atoms: _338  and  _339
REMARK  126  A    between atoms: _342  and  _344
REMARK  127  A    between atoms: _344  and  _345
REMARK  128  A    between atoms: _344  and  _347
REMARK  129  A    between atoms: _347  and  _348
REMARK  130  A    between atoms: _352  and  _353
REMARK  131  A    between atoms: _359  and  _360
REMARK  132  A    between atoms: _365  and  _367
REMARK  133  A    between atoms: _367  and  _368
REMARK  134  A    between atoms: _367  and  _370
REMARK  135  A    between atoms: _370  and  _371
REMARK  136  A    between atoms: _374  and  _376
REMARK  137  A    between atoms: _376  and  _377
REMARK  138  A    between atoms: _376  and  _379
REMARK  139  A    between atoms: _379  and  _380
REMARK  140  A    between atoms: _383  and  _385
REMARK  141  A    between atoms: _385  and  _386
REMARK  142  A    between atoms: _385  and  _388
REMARK  143  A    between atoms: _390  and  _392
REMARK  144  A    between atoms: _392  and  _393
REMARK  145  A    between atoms: _392  and  _395
REMARK  146  A    between atoms: _398  and  _400
REMARK  147  A    between atoms: _400  and  _401
REMARK  148  A    between atoms: _400  and  _403
REMARK  149  A    between atoms: _403  and  _404
REMARK  150  A    between atoms: _414  and  _416
REMARK  151  A    between atoms: _416  and  _417
REMARK  152  A    between atoms: _416  and  _419
REMARK  153  A    between atoms: _419  and  _420
REMARK  154  A    between atoms: _425  and  _427
REMARK  155  A    between atoms: _427  and  _428
REMARK  156  A    between atoms: _427  and  _430
REMARK  157  A    between atoms: _430  and  _431
REMARK  158  A    between atoms: _431  and  _432
REMARK  159  A    between atoms: _432  and  _433
REMARK                            x       y       z     vdW  Elec       q    Type
REMARK                         _______ _______ _______ _____ _____    ______ ____
ROOT
ATOM      1  C   ALA A   2     -12.305   4.958  20.868  0.00  0.00    +0.241 C 
ATOM      2  N   VAL A   3     -11.770   3.758  21.094  0.00  0.00    -0.297 N 
ATOM      3  H   VAL A   3     -11.280   3.554  21.989  0.00  0.00    +0.150 HD
ATOM      4  O   ALA A   2     -12.725   5.298  19.755  0.00  0.00    -0.273 OA
ENDROOT
BRANCH   1   5
ATOM      5  CA  ALA A   2     -12.235   5.964  21.994  0.00  0.00    +0.149 C 
ATOM      6  CB  ALA A   2     -13.638   6.381  22.449  0.00  0.00    +0.031 C 
BRANCH   5   9
ATOM      7  C   LEU A   1     -10.442   7.620  22.114  0.00  0.00    +0.238 C 
ATOM      8  O   LEU A   1     -10.193   7.342  23.304  0.00  0.00    -0.274 OA
ATOM      9  N   ALA A   2     -11.490   7.116  21.468  0.00  0.00    -0.297 N 
ATOM     10  H   ALA A   2     -11.789   7.547  20.570  0.00  0.00    +0.150 HD
BRANCH   7  11
ATOM     11  CA  LEU A   1      -9.545   8.561  21.317  0.00  0.00    +0.145 C 
BRANCH  11  12
ATOM     12  N   LEU A   1      -8.887   9.516  22.214  0.00  0.00    -0.238 NA
ATOM     13  H   LEU A   1      -8.300   9.152  22.992  0.00  0.00    +0.142 HD
ENDBRANCH  11  12
BRANCH  11  14
ATOM     14  CB  LEU A   1      -8.501   7.726  20.555  0.00  0.00    +0.026 C 
BRANCH  14  15
ATOM     15  CG  LEU A   1      -8.090   8.195  19.150  0.00  0.00    +0.002 C 
ATOM     16  CD2 LEU A   1      -7.683   9.640  19.134  0.00  0.00    +0.000 C 
ATOM     17  CD1 LEU A   1      -6.998   7.277  18.554  0.00  0.00    +0.000 C 
ENDBRANCH  14  15
ENDBRANCH  11  14
ENDBRANCH   7  11
ENDBRANCH   5   9
ENDBRANCH   1   5
BRANCH   2  18
ATOM     18  CA  VAL A   3     -11.887   2.739  20.059  0.00  0.00    +0.149 C 
BRANCH  18  19
ATOM     19  C   VAL A   3     -12.846   1.663  20.533  0.00  0.00    +0.241 C 
ATOM     20  O   VAL A   3     -12.684   1.114  21.632  0.00  0.00    -0.273 OA
ATOM     21  N   LEU A   4     -13.849   1.379  19.705  0.00  0.00    -0.298 N 
ATOM     22  H   LEU A   4     -13.943   1.931  18.828  0.00  0.00    +0.150 HD
BRANCH  21  23
ATOM     23  CA  LEU A   4     -14.821   0.328  19.975  0.00  0.00    +0.137 C 
BRANCH  23  24
ATOM     24  C   LEU A   4     -14.292  -0.933  19.291  0.00  0.00    +0.227 C 
ATOM     25  O   LEU A   4     -14.118  -0.965  18.073  0.00  0.00    -0.286 OA
ENDBRANCH  23  24
BRANCH  23  26
ATOM     26  CB  LEU A   4     -16.183   0.771  19.413  0.00  0.00    +0.028 C 
BRANCH  26  27
ATOM     27  CG  LEU A   4     -17.334  -0.195  19.573  0.00  0.00    +0.002 C 
ATOM     28  CD2 LEU A   4     -17.550  -0.484  21.055  0.00  0.00    +0.000 C 
ATOM     29  CD1 LEU A   4     -18.617   0.393  18.940  0.00  0.00    +0.000 C 
ENDBRANCH  26  27
ENDBRANCH  23  26
ENDBRANCH  21  23
ENDBRANCH  18  19
BRANCH  18  30
ATOM     30  CB  VAL A   3     -10.531   2.109  19.706  0.00  0.00    +0.027 C 
ATOM     31  CG2 VAL A   3      -9.535   3.205  19.351  0.00  0.00    +0.002 C 
ATOM     32  CG1 VAL A   3     -10.715   1.152  18.513  0.00  0.00    +0.002 C 
ENDBRANCH  18  30
ENDBRANCH   2  18
TORSDOF 13
REMARK  Name = ../refined-set-2016/3n4b/3n4b_pocket.pdb
REMARK  159 active torsions:
REMARK  status: ('A' for Active; 'I' for Inactive)
REMARK    1  A    between atoms: _1  and  _3
REMARK    2  A    between atoms: _3  and  _4
REMARK    3  A    between atoms: _3  and  _6
REMARK    4  A    between atoms: _6  and  _7
REMARK    5  A    between atoms: _17  and  _19
REMARK    6  A    between atoms: _19  and  _20
REMARK    7  A    between atoms: _19  and  _22
REMARK    8  A    between atoms: _22  and  _23
REMARK    9  A    between atoms: _28  and  _29
REMARK   10  A    between atoms: _31  and  _33
REMARK   11  A    between atoms: _33  and  _34
REMARK   12  A    between atoms: _33  and  _36
REMARK   13  A    between atoms: _36  and  _37
REMARK   14  A    between atoms: _43  and  _45
REMARK   15  A    between atoms: _45  and  _46
REMARK   16  A    between atoms: _45  and  _48
REMARK   17  A    between atoms: _48  and  _49
REMARK   18  A    between atoms: _52  and  _53
REMARK   19  A    between atoms: _58  and  _60
REMARK   20  A    between atoms: _60  and  _61
REMARK   21  A    between atoms: _60  and  _63
REMARK   22  A    between atoms: _63  and  _64
REMARK   23  A    between atoms: _69  and  _71
REMARK   24  A    between atoms: _71  and  _72
REMARK   25  A    between atoms: _75  and  _77
REMARK   26  A    between atoms: _77  and  _78
REMARK   27  A    between atoms: _77  and  _80
REMARK   28  A    between atoms: _80  and  _81
REMARK   29  A    between atoms: _86  and  _88
REMARK   30  A    between atoms: _88  and  _89
REMARK   31  A    between atoms: _88  and  _91
REMARK   32  A    between atoms: _91  and  _92
REMARK   33  A    between atoms: _92  and  _93
REMARK   34  A    between atoms: _96  and  _98
REMARK   35  A    between atoms: _98  and  _99
REMARK   36  A    between atoms: _98  and  _101
REMARK   37  A    between atoms: _101  and  _102
REMARK   38  A    between atoms: _105  and  _107
REMARK   39  A    between atoms: _107  and  _108
REMARK   40  A    between atoms: _107  and  _110
REMARK   41  A    between atoms: _110  and  _111
REMARK   42  A    between atoms: _111  and  _112
REMARK   43  A    between atoms: _117  and  _119
REMARK   44  A    between atoms: _119  and  _120
REMARK   45  A    between atoms: _119  and  _122
REMARK   46  A    between atoms: _122  and  _123
REMARK   47  A    between atoms: _129  and  _131
REMARK   48  A    between atoms: _142  and  _145
REMARK   49  A    between atoms: _145  and  _146
REMARK   50  A    between atoms: _154  and  _155
REMARK   51  A    between atoms: _163  and  _165
REMARK   52  A    between atoms: _165  and  _166
REMARK   53  A    between atoms: _165  and  _168
REMARK   54  A    between atoms: _168  and  _169
REMARK   55  A    between atoms: _169  and  _170
REMARK   56  A    between atoms: _173  and  _175
REMARK   57  A    between atoms: _175  and  _176
REMARK   58  A    between atoms: _175  and  _178
REMARK   59  A    between atoms: _178  and  _179
REMARK   60  A    between atoms: _184  and  _186
REMARK   61  A    between atoms: _186  and  _187
REMARK   62  A    between atoms: _186  and  _189
REMARK   63  A    between atoms: _189  and  _190
REMARK   64  A    between atoms: _190  and  _191
REMARK   65  A    between atoms: _194  and  _196
REMARK   66  A    between atoms: _196  and  _197
REMARK   67  A    between atoms: _196  and  _199
REMARK   68  A    between atoms: _199  and  _200
REMARK   69  A    between atoms: _203  and  _205
REMARK   70  A    between atoms: _205  and  _206
REMARK   71  A    between atoms: _205  and  _208
REMARK   72  A    between atoms: _208  and  _209
REMARK   73  A    between atoms: _210  and  ZN_442
REMARK   74  A    between atoms: _214  and  _216
REMARK   75  A    between atoms: _216  and  _217
REMARK   76  A    between atoms: _216  and  _219
REMARK   77  A    between atoms: _219  and  _220
REMARK   78  A    between atoms: _223  and  _225
REMARK   79  A    between atoms: _225  and  _226
REMARK   80  A    between atoms: _225  and  _228
REMARK   81  A    between atoms: _231  and  _233
REMARK   82  A    between atoms: _233  and  _234
REMARK   83  A    between atoms: _233  and  _236
REMARK   84  A    between atoms: _236  and  _237
REMARK   85  A    between atoms: _242  and  _244
REMARK   86  A    between atoms: _244  and  _245
REMARK   87  A    between atoms: _244  and  _247
REMARK   88  A    between atoms: _247  and  _248
REMARK   89  A    between atoms: _254  and  _256
REMARK   90  A    between atoms: _256  and  _257
REMARK   91  A    between atoms: _259  and  _261
REMARK   92  A    between atoms: _261  and  _262
REMARK   93  A    between atoms: _261  and  _264
REMARK   94  A    between atoms: _267  and  _269
REMARK   95  A    between atoms: _269  and  _270
REMARK   96  A    between atoms: _269  and  _272
REMARK   97  A    between atoms: _272  and  _273
REMARK   98  A    between atoms: _273  and  _274
REMARK   99  A    between atoms: _279  and  _281
REMARK  100  A    between atoms: _281  and  _282
REMARK  101  A    between atoms: _281  and  _284
REMARK  102  A    between atoms: _284  and  _285
REMARK  103  A    between atoms: _288  and  _290
REMARK  104  A    between atoms: _290  and  _291
REMARK  105  A    between atoms: _294  and  _296
REMARK  106  A    between atoms: _296  and  _297
REMARK  107  A    between atoms: _296  and  _299
REMARK  108  A    between atoms: _302  and  _304
REMARK  109  A    between atoms: _304  and  _305
REMARK  110  A    between atoms: _304  and  _307
REMARK  111  A    between atoms: _307  and  _308
REMARK  112  A    between atoms: _311  and  _313
REMARK  113  A    between atoms: _313  and  _314
REMARK  114  A    between atoms: _316  and  _318
REMARK  115  A    between atoms: _318  and  _319
REMARK  116  A    between atoms: _318  and  _321
REMARK  117  A    between atoms: _321  and  _322
REMARK  118  A    between atoms: _324  and  _326
REMARK  119  A    between atoms: _326  and  _327
REMARK  120  A    between atoms: _326  and  _329
REMARK  121  A    between atoms: _329  and  _330
REMARK  122  A    between atoms: _333  and  _335
REMARK  123  A    between atoms: _335  and  _336
REMARK  124  A    between atoms: _335  and  _338
REMARK  125  A    between atoms: _338  and  _339
REMARK  126  A    between atoms: _342  and  _344
REMARK  127  A    between atoms: _344  and  _345
REMARK  128  A    between atoms: _344  and  _347
REMARK  129  A    between atoms: _347  and  _348
REMARK  130  A    between atoms: _352  and  _353
REMARK  131  A    between atoms: _359  and  _360
REMARK  132  A    between atoms: _365  and  _367
REMARK  133  A    between atoms: _367  and  _368
REMARK  134  A    between atoms: _367  and  _370
REMARK  135  A    between atoms: _370  and  _371
REMARK  136  A    between atoms: _374  and  _376
REMARK  137  A    between atoms: _376  and  _377
REMARK  138  A    between atoms: _376  and  _379
REMARK  139  A    between atoms: _379  and  _380
REMARK  140  A    between atoms: _383  and  _385
REMARK  141  A    between atoms: _385  and  _386
REMARK  142  A    between atoms: _385  and  _388
REMARK  143  A    between atoms: _390  and  _392
REMARK  144  A    between atoms: _392  and  _393
REMARK  145  A    between atoms: _392  and  _395
REMARK  146  A    between atoms: _398  and  _400
REMARK  147  A    between atoms: _400  and  _401
REMARK  148  A    between atoms: _400  and  _403
REMARK  149  A    between atoms: _403  and  _404
REMARK  150  A    between atoms: _414  and  _416
REMARK  151  A    between atoms: _416  and  _417
REMARK  152  A    between atoms: _416  and  _419
REMARK  153  A    between atoms: _419  and  _420
REMARK  154  A    between atoms: _425  and  _427
REMARK  155  A    between atoms: _427  and  _428
REMARK  156  A    between atoms: _427  and  _430
REMARK  157  A    between atoms: _430  and  _431
REMARK  158  A    between atoms: _431  and  _432
REMARK  159  A    between atoms: _432  and  _433
REMARK                            x       y       z     vdW  Elec       q    Type
REMARK                         _______ _______ _______ _____ _____    ______ ____
ROOT
ATOM      1  CA  THR A   5       0.415  -0.012  16.255  0.00  0.00    +0.176 C 
ENDROOT
BRANCH   1   2
ATOM      2  C   THR A   5       1.216   1.242  16.532  0.00  0.00    +0.246 C 
ATOM      3  O   THR A   5       0.730   2.175  17.158  0.00  0.00    -0.273 OA
ATOM      4  N   PRO A   6       2.456   1.280  16.047  0.00  0.00    -0.272 N 
ATOM      5  CA  PRO A   6       3.175   2.543  16.165  0.00  0.00    +0.152 C 
ATOM      6  CB  PRO A   6       4.424   2.294  15.293  0.00  0.00    +0.031 C 
ATOM      7  CG  PRO A   6       4.668   0.825  15.480  0.00  0.00    +0.024 C 
ATOM      8  CD  PRO A   6       3.285   0.213  15.458  0.00  0.00    +0.094 C 
BRANCH   5   9
ATOM      9  C   PRO A   6       2.310   3.687  15.632  0.00  0.00    +0.244 C 
ATOM     10  N   PRO A   7       2.392   4.872  16.240  0.00  0.00    -0.272 N 
ATOM     11  CA  PRO A   7       3.330   5.262  17.312  0.00  0.00    +0.152 C 
ATOM     12  CB  PRO A   7       3.371   6.789  17.182  0.00  0.00    +0.031 C 
ATOM     13  CG  PRO A   7       2.010   7.151  16.663  0.00  0.00    +0.024 C 
ATOM     14  CD  PRO A   7       1.599   6.018  15.747  0.00  0.00    +0.094 C 
ATOM     15  O   PRO A   6       1.568   3.480  14.657  0.00  0.00    -0.273 OA
BRANCH  11  16
ATOM     16  C   PRO A   7       2.936   4.834  18.744  0.00  0.00    +0.241 C 
ATOM     17  O   PRO A   7       3.584   5.293  19.674  0.00  0.00    -0.273 OA
ATOM     18  N   LEU A   8       1.909   3.987  18.902  0.00  0.00    -0.297 N 
ATOM     19  H   LEU A   8       1.301   3.773  18.086  0.00  0.00    +0.150 HD
BRANCH  18  20
ATOM     20  CA  LEU A   8       1.615   3.349  20.201  0.00  0.00    +0.149 C 
BRANCH  20  21
ATOM     21  C   LEU A   8       1.237   4.362  21.267  0.00  0.00    +0.241 C 
ATOM     22  O   LEU A   8       1.371   4.100  22.463  0.00  0.00    -0.273 OA
ATOM     23  N   LEU A   9       0.692   5.498  20.837  0.00  0.00    -0.298 N 
ATOM     24  H   LEU A   9       0.482   5.611  19.825  0.00  0.00    +0.150 HD
BRANCH  23  25
ATOM     25  CA  LEU A   9       0.383   6.589  21.758  0.00  0.00    +0.137 C 
BRANCH  25  26
ATOM     26  C   LEU A   9      -0.680   6.172  22.767  0.00  0.00    +0.227 C 
ATOM     27  O   LEU A   9      -1.656   5.498  22.425  0.00  0.00    -0.286 OA
ENDBRANCH  25  26
BRANCH  25  28
ATOM     28  CB  LEU A   9      -0.069   7.830  20.974  0.00  0.00    +0.028 C 
BRANCH  28  29
ATOM     29  CG  LEU A   9       1.027   8.414  20.063  0.00  0.00    +0.002 C 
ATOM     30  CD2 LEU A   9       2.179   9.001  20.901  0.00  0.00    +0.000 C 
ATOM     31  CD1 LEU A   9       0.452   9.445  19.124  0.00  0.00    +0.000 C 
ENDBRANCH  28  29
ENDBRANCH  25  28
ENDBRANCH  23  25
ENDBRANCH  20  21
BRANCH  20  32
ATOM     32  CB  LEU A   8       2.780   2.467  20.698  0.00  0.00    +0.029 C 
BRANCH  32  33
ATOM     33  CG  LEU A   8       3.113   1.317  19.729  0.00  0.00    +0.002 C 
ATOM     34  CD2 LEU A   8       4.438   0.668  20.150  0.00  0.00    +0.000 C 
ATOM     35  CD1 LEU A   8       1.992   0.274  19.685  0.00  0.00    +0.000 C 
ENDBRANCH  32  33
ENDBRANCH  20  32
ENDBRANCH  18  20
ENDBRANCH  11  16
ENDBRANCH   5   9
ENDBRANCH   1   2
BRANCH   1  38
ATOM     36  C   THR A   4      -0.930  -1.143  17.947  0.00  0.00    +0.243 C 
ATOM     37  O   THR A   4      -0.346  -2.221  17.764  0.00  0.00    -0.273 OA
ATOM     38  N   THR A   5      -0.691  -0.062  17.215  0.00  0.00    -0.295 N 
ATOM     39  H   THR A   5      -1.304   0.771  17.326  0.00  0.00    +0.150 HD
BRANCH  36  40
ATOM     40  CA  THR A   4      -1.987  -1.002  19.052  0.00  0.00    +0.176 C 
BRANCH  40  43
ATOM     41  C   LEU A   3      -2.198   1.273  19.837  0.00  0.00    +0.241 C 
ATOM     42  O   LEU A   3      -1.167   1.116  20.527  0.00  0.00    -0.273 OA
ATOM     43  N   THR A   4      -2.667   0.307  19.047  0.00  0.00    -0.295 N 
ATOM     44  H   THR A   4      -3.495   0.473  18.440  0.00  0.00    +0.150 HD
BRANCH  41  45
ATOM     45  CA  LEU A   3      -2.921   2.601  19.827  0.00  0.00    +0.149 C 
BRANCH  45  48
ATOM     46  C   SER A   2      -3.430   2.466  22.178  0.00  0.00    +0.243 C 
ATOM     47  O   SER A   2      -4.179   1.498  21.996  0.00  0.00    -0.273 OA
ATOM     48  N   LEU A   3      -2.879   3.150  21.177  0.00  0.00    -0.297 N 
ATOM     49  H   LEU A   3      -2.423   4.067  21.357  0.00  0.00    +0.150 HD
BRANCH  46  50
ATOM     50  CA  SER A   2      -3.003   2.861  23.587  0.00  0.00    +0.178 C 
BRANCH  50  53
ATOM     51  C   GLY A   1      -4.256   2.822  25.689  0.00  0.00    +0.240 C 
ATOM     52  O   GLY A   1      -4.163   4.031  25.828  0.00  0.00    -0.274 OA
ATOM     53  N   SER A   2      -3.797   2.180  24.618  0.00  0.00    -0.295 N 
ATOM     54  H   SER A   2      -4.006   1.167  24.508  0.00  0.00    +0.150 HD
BRANCH  51  55
ATOM     55  CA  GLY A   1      -4.859   1.960  26.770  0.00  0.00    +0.169 C 
BRANCH  55  56
ATOM     56  N   GLY A   1      -5.941   2.604  27.490  0.00  0.00    -0.236 NA
ATOM     57  H   GLY A   1      -6.549   3.298  27.010  0.00  0.00    +0.142 HD
ENDBRANCH  55  56
ENDBRANCH  51  55
ENDBRANCH  50  53
BRANCH  50  58
ATOM     58  CB  SER A   2      -1.524   2.456  23.744  0.00  0.00    +0.166 C 
BRANCH  58  59
ATOM     59  OG  SER A   2      -1.324   1.107  23.309  0.00  0.00    -0.380 OA
ATOM     60  H   SER A   2      -1.580   1.027  22.356  0.00  0.00    +0.211 HD
ENDBRANCH  58  59
ENDBRANCH  50  58
ENDBRANCH  46  50
ENDBRANCH  45  48
BRANCH  45  61
ATOM     61  CB  LEU A   3      -2.214   3.548  18.845  0.00  0.00    +0.029 C 
BRANCH  61  62
ATOM     62  CG  LEU A   3      -2.758   4.984  18.806  0.00  0.00    +0.002 C 
ATOM     63  CD2 LEU A   3      -4.202   5.032  18.319  0.00  0.00    +0.000 C 
ATOM     64  CD1 LEU A   3      -1.857   5.820  17.892  0.00  0.00    +0.000 C 
ENDBRANCH  61  62
ENDBRANCH  45  61
ENDBRANCH  41  45
ENDBRANCH  40  43
BRANCH  40  65
ATOM     65  CB  THR A   4      -2.957  -2.157  18.884  0.00  0.00    +0.137 C 
ATOM     66  CG2 THR A   4      -4.051  -2.134  19.975  0.00  0.00    +0.034 C 
BRANCH  65  67
ATOM     67  OG1 THR A   4      -3.529  -2.058  17.579  0.00  0.00    -0.382 OA
ATOM     68  HG1 THR A   4      -4.168  -2.802  17.443  0.00  0.00    +0.210 HD
ENDBRANCH  65  67
ENDBRANCH  40  65
ENDBRANCH  36  40
ENDBRANCH   1  38
BRANCH   1  69
ATOM     69  CB  THR A   5      -0.044   0.086  14.767  0.00  0.00    +0.137 C 
ATOM     70  CG2 THR A   5      -1.128  -0.959  14.431  0.00  0.00    +0.034 C 
BRANCH  69  71
ATOM     71  OG1 THR A   5      -0.512   1.411  14.478  0.00  0.00    -0.382 OA
ATOM     72  HG1 THR A   5      -0.800   1.459  13.532  0.00  0.00    +0.210 HD
ENDBRANCH  69  71
ENDBRANCH   1  69
TORSDOF 28
REMARK  Name = ../refined-set-2016/3n4b/3n4b_pocket.pdb
REMARK  159 active torsions:
REMARK  status: ('A' for Active; 'I' for Inactive)
REMARK    1  A    between atoms: _1  and  _3
REMARK    2  A    between atoms: _3  and  _4
REMARK    3  A    between atoms: _3  and  _6
REMARK    4  A    between atoms: _6  and  _7
REMARK    5  A    between atoms: _17  and  _19
REMARK    6  A    between atoms: _19  and  _20
REMARK    7  A    between atoms: _19  and  _22
REMARK    8  A    between atoms: _22  and  _23
REMARK    9  A    between atoms: _28  and  _29
REMARK   10  A    between atoms: _31  and  _33
REMARK   11  A    between atoms: _33  and  _34
REMARK   12  A    between atoms: _33  and  _36
REMARK   13  A    between atoms: _36  and  _37
REMARK   14  A    between atoms: _43  and  _45
REMARK   15  A    between atoms: _45  and  _46
REMARK   16  A    between atoms: _45  and  _48
REMARK   17  A    between atoms: _48  and  _49
REMARK   18  A    between atoms: _52  and  _53
REMARK   19  A    between atoms: _58  and  _60
REMARK   20  A    between atoms: _60  and  _61
REMARK   21  A    between atoms: _60  and  _63
REMARK   22  A    between atoms: _63  and  _64
REMARK   23  A    between atoms: _69  and  _71
REMARK   24  A    between atoms: _71  and  _72
REMARK   25  A    between atoms: _75  and  _77
REMARK   26  A    between atoms: _77  and  _78
REMARK   27  A    between atoms: _77  and  _80
REMARK   28  A    between atoms: _80  and  _81
REMARK   29  A    between atoms: _86  and  _88
REMARK   30  A    between atoms: _88  and  _89
REMARK   31  A    between atoms: _88  and  _91
REMARK   32  A    between atoms: _91  and  _92
REMARK   33  A    between atoms: _92  and  _93
REMARK   34  A    between atoms: _96  and  _98
REMARK   35  A    between atoms: _98  and  _99
REMARK   36  A    between atoms: _98  and  _101
REMARK   37  A    between atoms: _101  and  _102
REMARK   38  A    between atoms: _105  and  _107
REMARK   39  A    between atoms: _107  and  _108
REMARK   40  A    between atoms: _107  and  _110
REMARK   41  A    between atoms: _110  and  _111
REMARK   42  A    between atoms: _111  and  _112
REMARK   43  A    between atoms: _117  and  _119
REMARK   44  A    between atoms: _119  and  _120
REMARK   45  A    between atoms: _119  and  _122
REMARK   46  A    between atoms: _122  and  _123
REMARK   47  A    between atoms: _129  and  _131
REMARK   48  A    between atoms: _142  and  _145
REMARK   49  A    between atoms: _145  and  _146
REMARK   50  A    between atoms: _154  and  _155
REMARK   51  A    between atoms: _163  and  _165
REMARK   52  A    between atoms: _165  and  _166
REMARK   53  A    between atoms: _165  and  _168
REMARK   54  A    between atoms: _168  and  _169
REMARK   55  A    between atoms: _169  and  _170
REMARK   56  A    between atoms: _173  and  _175
REMARK   57  A    between atoms: _175  and  _176
REMARK   58  A    between atoms: _175  and  _178
REMARK   59  A    between atoms: _178  and  _179
REMARK   60  A    between atoms: _184  and  _186
REMARK   61  A    between atoms: _186  and  _187
REMARK   62  A    between atoms: _186  and  _189
REMARK   63  A    between atoms: _189  and  _190
REMARK   64  A    between atoms: _190  and  _191
REMARK   65  A    between atoms: _194  and  _196
REMARK   66  A    between atoms: _196  and  _197
REMARK   67  A    between atoms: _196  and  _199
REMARK   68  A    between atoms: _199  and  _200
REMARK   69  A    between atoms: _203  and  _205
REMARK   70  A    between atoms: _205  and  _206
REMARK   71  A    between atoms: _205  and  _208
REMARK   72  A    between atoms: _208  and  _209
REMARK   73  A    between atoms: _210  and  ZN_442
REMARK   74  A    between atoms: _214  and  _216
REMARK   75  A    between atoms: _216  and  _217
REMARK   76  A    between atoms: _216  and  _219
REMARK   77  A    between atoms: _219  and  _220
REMARK   78  A    between atoms: _223  and  _225
REMARK   79  A    between atoms: _225  and  _226
REMARK   80  A    between atoms: _225  and  _228
REMARK   81  A    between atoms: _231  and  _233
REMARK   82  A    between atoms: _233  and  _234
REMARK   83  A    between atoms: _233  and  _236
REMARK   84  A    between atoms: _236  and  _237
REMARK   85  A    between atoms: _242  and  _244
REMARK   86  A    between atoms: _244  and  _245
REMARK   87  A    between atoms: _244  and  _247
REMARK   88  A    between atoms: _247  and  _248
REMARK   89  A    between atoms: _254  and  _256
REMARK   90  A    between atoms: _256  and  _257
REMARK   91  A    between atoms: _259  and  _261
REMARK   92  A    between atoms: _261  and  _262
REMARK   93  A    between atoms: _261  and  _264
REMARK   94  A    between atoms: _267  and  _269
REMARK   95  A    between atoms: _269  and  _270
REMARK   96  A    between atoms: _269  and  _272
REMARK   97  A    between atoms: _272  and  _273
REMARK   98  A    between atoms: _273  and  _274
REMARK   99  A    between atoms: _279  and  _281
REMARK  100  A    between atoms: _281  and  _282
REMARK  101  A    between atoms: _281  and  _284
REMARK  102  A    between atoms: _284  and  _285
REMARK  103  A    between atoms: _288  and  _290
REMARK  104  A    between atoms: _290  and  _291
REMARK  105  A    between atoms: _294  and  _296
REMARK  106  A    between atoms: _296  and  _297
REMARK  107  A    between atoms: _296  and  _299
REMARK  108  A    between atoms: _302  and  _304
REMARK  109  A    between atoms: _304  and  _305
REMARK  110  A    between atoms: _304  and  _307
REMARK  111  A    between atoms: _307  and  _308
REMARK  112  A    between atoms: _311  and  _313
REMARK  113  A    between atoms: _313  and  _314
REMARK  114  A    between atoms: _316  and  _318
REMARK  115  A    between atoms: _318  and  _319
REMARK  116  A    between atoms: _318  and  _321
REMARK  117  A    between atoms: _321  and  _322
REMARK  118  A    between atoms: _324  and  _326
REMARK  119  A    between atoms: _326  and  _327
REMARK  120  A    between atoms: _326  and  _329
REMARK  121  A    between atoms: _329  and  _330
REMARK  122  A    between atoms: _333  and  _335
REMARK  123  A    between atoms: _335  and  _336
REMARK  124  A    between atoms: _335  and  _338
REMARK  125  A    between atoms: _338  and  _339
REMARK  126  A    between atoms: _342  and  _344
REMARK  127  A    between atoms: _344  and  _345
REMARK  128  A    between atoms: _344  and  _347
REMARK  129  A    between atoms: _347  and  _348
REMARK  130  A    between atoms: _352  and  _353
REMARK  131  A    between atoms: _359  and  _360
REMARK  132  A    between atoms: _365  and  _367
REMARK  133  A    between atoms: _367  and  _368
REMARK  134  A    between atoms: _367  and  _370
REMARK  135  A    between atoms: _370  and  _371
REMARK  136  A    between atoms: _374  and  _376
REMARK  137  A    between atoms: _376  and  _377
REMARK  138  A    between atoms: _376  and  _379
REMARK  139  A    between atoms: _379  and  _380
REMARK  140  A    between atoms: _383  and  _385
REMARK  141  A    between atoms: _385  and  _386
REMARK  142  A    between atoms: _385  and  _388
REMARK  143  A    between atoms: _390  and  _392
REMARK  144  A    between atoms: _392  and  _393
REMARK  145  A    between atoms: _392  and  _395
REMARK  146  A    between atoms: _398  and  _400
REMARK  147  A    between atoms: _400  and  _401
REMARK  148  A    between atoms: _400  and  _403
REMARK  149  A    between atoms: _403  and  _404
REMARK  150  A    between atoms: _414  and  _416
REMARK  151  A    between atoms: _416  and  _417
REMARK  152  A    between atoms: _416  and  _419
REMARK  153  A    between atoms: _419  and  _420
REMARK  154  A    between atoms: _425  and  _427
REMARK  155  A    between atoms: _427  and  _428
REMARK  156  A    between atoms: _427  and  _430
REMARK  157  A    between atoms: _430  and  _431
REMARK  158  A    between atoms: _431  and  _432
REMARK  159  A    between atoms: _432  and  _433
REMARK                            x       y       z     vdW  Elec       q    Type
REMARK                         _______ _______ _______ _____ _____    ______ ____
ROOT
ATOM      1  C   CYS A   1      -5.844   7.529  23.970  0.00  0.00    +0.239 C 
ATOM      2  N   VAL A   2      -5.972   6.232  24.241  0.00  0.00    -0.298 N 
ATOM      3  H   VAL A   2      -5.191   5.725  24.706  0.00  0.00    +0.150 HD
ATOM      4  O   CYS A   1      -6.774   8.225  23.632  0.00  0.00    -0.274 OA
ENDROOT
BRANCH   1   5
ATOM      5  CA  CYS A   1      -4.452   8.150  24.084  0.00  0.00    +0.156 C 
BRANCH   5   6
ATOM      6  N   CYS A   1      -3.402   7.154  24.231  0.00  0.00    -0.237 NA
ATOM      7  H   CYS A   1      -3.319   6.398  23.522  0.00  0.00    +0.142 HD
ENDBRANCH   5   6
BRANCH   5   8
ATOM      8  CB  CYS A   1      -4.170   8.981  22.830  0.00  0.00    +0.095 C 
ATOM      9  SG  CYS A   1      -4.103   7.987  21.285  0.00  0.00    -0.080 S 
ENDBRANCH   5   8
ENDBRANCH   1   5
BRANCH   2  10
ATOM     10  CA  VAL A   2      -7.207   5.503  23.891  0.00  0.00    +0.137 C 
BRANCH  10  11
ATOM     11  CB  VAL A   2      -6.904   4.251  23.025  0.00  0.00    +0.026 C 
ATOM     12  CG2 VAL A   2      -8.218   3.515  22.685  0.00  0.00    +0.002 C 
ATOM     13  CG1 VAL A   2      -6.174   4.634  21.727  0.00  0.00    +0.002 C 
ENDBRANCH  10  11
BRANCH  10  14
ATOM     14  C   VAL A   2      -7.981   5.027  25.102  0.00  0.00    +0.227 C 
ATOM     15  O   VAL A   2      -7.434   4.376  25.979  0.00  0.00    -0.286 OA
ENDBRANCH  10  14
ENDBRANCH   2  10
TORSDOF 6
REMARK  Name = ../refined-set-2016/3n4b/3n4b_pocket.pdb
REMARK  159 active torsions:
REMARK  status: ('A' for Active; 'I' for Inactive)
REMARK    1  A    between atoms: _1  and  _3
REMARK    2  A    between atoms: _3  and  _4
REMARK    3  A    between atoms: _3  and  _6
REMARK    4  A    between atoms: _6  and  _7
REMARK    5  A    between atoms: _17  and  _19
REMARK    6  A    between atoms: _19  and  _20
REMARK    7  A    between atoms: _19  and  _22
REMARK    8  A    between atoms: _22  and  _23
REMARK    9  A    between atoms: _28  and  _29
REMARK   10  A    between atoms: _31  and  _33
REMARK   11  A    between atoms: _33  and  _34
REMARK   12  A    between atoms: _33  and  _36
REMARK   13  A    between atoms: _36  and  _37
REMARK   14  A    between atoms: _43  and  _45
REMARK   15  A    between atoms: _45  and  _46
REMARK   16  A    between atoms: _45  and  _48
REMARK   17  A    between atoms: _48  and  _49
REMARK   18  A    between atoms: _52  and  _53
REMARK   19  A    between atoms: _58  and  _60
REMARK   20  A    between atoms: _60  and  _61
REMARK   21  A    between atoms: _60  and  _63
REMARK   22  A    between atoms: _63  and  _64
REMARK   23  A    between atoms: _69  and  _71
REMARK   24  A    between atoms: _71  and  _72
REMARK   25  A    between atoms: _75  and  _77
REMARK   26  A    between atoms: _77  and  _78
REMARK   27  A    between atoms: _77  and  _80
REMARK   28  A    between atoms: _80  and  _81
REMARK   29  A    between atoms: _86  and  _88
REMARK   30  A    between atoms: _88  and  _89
REMARK   31  A    between atoms: _88  and  _91
REMARK   32  A    between atoms: _91  and  _92
REMARK   33  A    between atoms: _92  and  _93
REMARK   34  A    between atoms: _96  and  _98
REMARK   35  A    between atoms: _98  and  _99
REMARK   36  A    between atoms: _98  and  _101
REMARK   37  A    between atoms: _101  and  _102
REMARK   38  A    between atoms: _105  and  _107
REMARK   39  A    between atoms: _107  and  _108
REMARK   40  A    between atoms: _107  and  _110
REMARK   41  A    between atoms: _110  and  _111
REMARK   42  A    between atoms: _111  and  _112
REMARK   43  A    between atoms: _117  and  _119
REMARK   44  A    between atoms: _119  and  _120
REMARK   45  A    between atoms: _119  and  _122
REMARK   46  A    between atoms: _122  and  _123
REMARK   47  A    between atoms: _129  and  _131
REMARK   48  A    between atoms: _142  and  _145
REMARK   49  A    between atoms: _145  and  _146
REMARK   50  A    between atoms: _154  and  _155
REMARK   51  A    between atoms: _163  and  _165
REMARK   52  A    between atoms: _165  and  _166
REMARK   53  A    between atoms: _165  and  _168
REMARK   54  A    between atoms: _168  and  _169
REMARK   55  A    between atoms: _169  and  _170
REMARK   56  A    between atoms: _173  and  _175
REMARK   57  A    between atoms: _175  and  _176
REMARK   58  A    between atoms: _175  and  _178
REMARK   59  A    between atoms: _178  and  _179
REMARK   60  A    between atoms: _184  and  _186
REMARK   61  A    between atoms: _186  and  _187
REMARK   62  A    between atoms: _186  and  _189
REMARK   63  A    between atoms: _189  and  _190
REMARK   64  A    between atoms: _190  and  _191
REMARK   65  A    between atoms: _194  and  _196
REMARK   66  A    between atoms: _196  and  _197
REMARK   67  A    between atoms: _196  and  _199
REMARK   68  A    between atoms: _199  and  _200
REMARK   69  A    between atoms: _203  and  _205
REMARK   70  A    between atoms: _205  and  _206
REMARK   71  A    between atoms: _205  and  _208
REMARK   72  A    between atoms: _208  and  _209
REMARK   73  A    between atoms: _210  and  ZN_442
REMARK   74  A    between atoms: _214  and  _216
REMARK   75  A    between atoms: _216  and  _217
REMARK   76  A    between atoms: _216  and  _219
REMARK   77  A    between atoms: _219  and  _220
REMARK   78  A    between atoms: _223  and  _225
REMARK   79  A    between atoms: _225  and  _226
REMARK   80  A    between atoms: _225  and  _228
REMARK   81  A    between atoms: _231  and  _233
REMARK   82  A    between atoms: _233  and  _234
REMARK   83  A    between atoms: _233  and  _236
REMARK   84  A    between atoms: _236  and  _237
REMARK   85  A    between atoms: _242  and  _244
REMARK   86  A    between atoms: _244  and  _245
REMARK   87  A    between atoms: _244  and  _247
REMARK   88  A    between atoms: _247  and  _248
REMARK   89  A    between atoms: _254  and  _256
REMARK   90  A    between atoms: _256  and  _257
REMARK   91  A    between atoms: _259  and  _261
REMARK   92  A    between atoms: _261  and  _262
REMARK   93  A    between atoms: _261  and  _264
REMARK   94  A    between atoms: _267  and  _269
REMARK   95  A    between atoms: _269  and  _270
REMARK   96  A    between atoms: _269  and  _272
REMARK   97  A    between atoms: _272  and  _273
REMARK   98  A    between atoms: _273  and  _274
REMARK   99  A    between atoms: _279  and  _281
REMARK  100  A    between atoms: _281  and  _282
REMARK  101  A    between atoms: _281  and  _284
REMARK  102  A    between atoms: _284  and  _285
REMARK  103  A    between atoms: _288  and  _290
REMARK  104  A    between atoms: _290  and  _291
REMARK  105  A    between atoms: _294  and  _296
REMARK  106  A    between atoms: _296  and  _297
REMARK  107  A    between atoms: _296  and  _299
REMARK  108  A    between atoms: _302  and  _304
REMARK  109  A    between atoms: _304  and  _305
REMARK  110  A    between atoms: _304  and  _307
REMARK  111  A    between atoms: _307  and  _308
REMARK  112  A    between atoms: _311  and  _313
REMARK  113  A    between atoms: _313  and  _314
REMARK  114  A    between atoms: _316  and  _318
REMARK  115  A    between atoms: _318  and  _319
REMARK  116  A    between atoms: _318  and  _321
REMARK  117  A    between atoms: _321  and  _322
REMARK  118  A    between atoms: _324  and  _326
REMARK  119  A    between atoms: _326  and  _327
REMARK  120  A    between atoms: _326  and  _329
REMARK  121  A    between atoms: _329  and  _330
REMARK  122  A    between atoms: _333  and  _335
REMARK  123  A    between atoms: _335  and  _336
REMARK  124  A    between atoms: _335  and  _338
REMARK  125  A    between atoms: _338  and  _339
REMARK  126  A    between atoms: _342  and  _344
REMARK  127  A    between atoms: _344  and  _345
REMARK  128  A    between atoms: _344  and  _347
REMARK  129  A    between atoms: _347  and  _348
REMARK  130  A    between atoms: _352  and  _353
REMARK  131  A    between atoms: _359  and  _360
REMARK  132  A    between atoms: _365  and  _367
REMARK  133  A    between atoms: _367  and  _368
REMARK  134  A    between atoms: _367  and  _370
REMARK  135  A    between atoms: _370  and  _371
REMARK  136  A    between atoms: _374  and  _376
REMARK  137  A    between atoms: _376  and  _377
REMARK  138  A    between atoms: _376  and  _379
REMARK  139  A    between atoms: _379  and  _380
REMARK  140  A    between atoms: _383  and  _385
REMARK  141  A    between atoms: _385  and  _386
REMARK  142  A    between atoms: _385  and  _388
REMARK  143  A    between atoms: _390  and  _392
REMARK  144  A    between atoms: _392  and  _393
REMARK  145  A    between atoms: _392  and  _395
REMARK  146  A    between atoms: _398  and  _400
REMARK  147  A    between atoms: _400  and  _401
REMARK  148  A    between atoms: _400  and  _403
REMARK  149  A    between atoms: _403  and  _404
REMARK  150  A    between atoms: _414  and  _416
REMARK  151  A    between atoms: _416  and  _417
REMARK  152  A    between atoms: _416  and  _419
REMARK  153  A    between atoms: _419  and  _420
REMARK  154  A    between atoms: _425  and  _427
REMARK  155  A    between atoms: _427  and  _428
REMARK  156  A    between atoms: _427  and  _430
REMARK  157  A    between atoms: _430  and  _431
REMARK  158  A    between atoms: _431  and  _432
REMARK  159  A    between atoms: _432  and  _433
REMARK                            x       y       z     vdW  Elec       q    Type
REMARK                         _______ _______ _______ _____ _____    ______ ____
ROOT
ATOM      1  CG  TRP A   1      -8.690   0.035  24.114  0.00  0.00    -0.002 A 
ATOM      2  CD1 TRP A   1      -7.456   0.606  24.283  0.00  0.00    +0.068 A 
ATOM      3  NE1 TRP A   1      -6.773   0.608  23.081  0.00  0.00    -0.352 N 
ATOM      4  HE1 TRP A   1      -5.821   0.997  22.928  0.00  0.00    +0.166 HD
ATOM      5  CE2 TRP A   1      -7.555   0.014  22.122  0.00  0.00    +0.056 A 
ATOM      6  CZ2 TRP A   1      -7.289  -0.244  20.777  0.00  0.00    +0.017 A 
ATOM      7  CH2 TRP A   1      -8.274  -0.861  20.040  0.00  0.00    +0.001 A 
ATOM      8  CZ3 TRP A   1      -9.510  -1.226  20.616  0.00  0.00    +0.000 A 
ATOM      9  CE3 TRP A   1      -9.767  -0.976  21.957  0.00  0.00    +0.001 A 
ATOM     10  CD2 TRP A   1      -8.775  -0.348  22.734  0.00  0.00    +0.013 A 
ENDROOT
BRANCH   1  11
ATOM     11  CB  TRP A   1      -9.778  -0.092  25.139  0.00  0.00    +0.053 C 
BRANCH  11  12
ATOM     12  CA  TRP A   1     -10.802   1.052  24.922  0.00  0.00    +0.137 C 
BRANCH  12  13
ATOM     13  N   TRP A   1     -10.358   2.261  25.610  0.00  0.00    -0.239 NA
ATOM     14  H   TRP A   1      -9.731   2.169  26.435  0.00  0.00    +0.142 HD
ENDBRANCH  12  13
BRANCH  12  15
ATOM     15  C   TRP A   1     -12.156   0.622  25.424  0.00  0.00    +0.224 C 
ATOM     16  O   TRP A   1     -12.374   0.550  26.641  0.00  0.00    -0.287 OA
ENDBRANCH  12  15
ENDBRANCH  11  12
ENDBRANCH   1  11
TORSDOF 4
REMARK  Name = ../refined-set-2016/3n4b/3n4b_pocket.pdb
REMARK  159 active torsions:
REMARK  status: ('A' for Active; 'I' for Inactive)
REMARK    1  A    between atoms: _1  and  _3
REMARK    2  A    between atoms: _3  and  _4
REMARK    3  A    between atoms: _3  and  _6
REMARK    4  A    between atoms: _6  and  _7
REMARK    5  A    between atoms: _17  and  _19
REMARK    6  A    between atoms: _19  and  _20
REMARK    7  A    between atoms: _19  and  _22
REMARK    8  A    between atoms: _22  and  _23
REMARK    9  A    between atoms: _28  and  _29
REMARK   10  A    between atoms: _31  and  _33
REMARK   11  A    between atoms: _33  and  _34
REMARK   12  A    between atoms: _33  and  _36
REMARK   13  A    between atoms: _36  and  _37
REMARK   14  A    between atoms: _43  and  _45
REMARK   15  A    between atoms: _45  and  _46
REMARK   16  A    between atoms: _45  and  _48
REMARK   17  A    between atoms: _48  and  _49
REMARK   18  A    between atoms: _52  and  _53
REMARK   19  A    between atoms: _58  and  _60
REMARK   20  A    between atoms: _60  and  _61
REMARK   21  A    between atoms: _60  and  _63
REMARK   22  A    between atoms: _63  and  _64
REMARK   23  A    between atoms: _69  and  _71
REMARK   24  A    between atoms: _71  and  _72
REMARK   25  A    between atoms: _75  and  _77
REMARK   26  A    between atoms: _77  and  _78
REMARK   27  A    between atoms: _77  and  _80
REMARK   28  A    between atoms: _80  and  _81
REMARK   29  A    between atoms: _86  and  _88
REMARK   30  A    between atoms: _88  and  _89
REMARK   31  A    between atoms: _88  and  _91
REMARK   32  A    between atoms: _91  and  _92
REMARK   33  A    between atoms: _92  and  _93
REMARK   34  A    between atoms: _96  and  _98
REMARK   35  A    between atoms: _98  and  _99
REMARK   36  A    between atoms: _98  and  _101
REMARK   37  A    between atoms: _101  and  _102
REMARK   38  A    between atoms: _105  and  _107
REMARK   39  A    between atoms: _107  and  _108
REMARK   40  A    between atoms: _107  and  _110
REMARK   41  A    between atoms: _110  and  _111
REMARK   42  A    between atoms: _111  and  _112
REMARK   43  A    between atoms: _117  and  _119
REMARK   44  A    between atoms: _119  and  _120
REMARK   45  A    between atoms: _119  and  _122
REMARK   46  A    between atoms: _122  and  _123
REMARK   47  A    between atoms: _129  and  _131
REMARK   48  A    between atoms: _142  and  _145
REMARK   49  A    between atoms: _145  and  _146
REMARK   50  A    between atoms: _154  and  _155
REMARK   51  A    between atoms: _163  and  _165
REMARK   52  A    between atoms: _165  and  _166
REMARK   53  A    between atoms: _165  and  _168
REMARK   54  A    between atoms: _168  and  _169
REMARK   55  A    between atoms: _169  and  _170
REMARK   56  A    between atoms: _173  and  _175
REMARK   57  A    between atoms: _175  and  _176
REMARK   58  A    between atoms: _175  and  _178
REMARK   59  A    between atoms: _178  and  _179
REMARK   60  A    between atoms: _184  and  _186
REMARK   61  A    between atoms: _186  and  _187
REMARK   62  A    between atoms: _186  and  _189
REMARK   63  A    between atoms: _189  and  _190
REMARK   64  A    between atoms: _190  and  _191
REMARK   65  A    between atoms: _194  and  _196
REMARK   66  A    between atoms: _196  and  _197
REMARK   67  A    between atoms: _196  and  _199
REMARK   68  A    between atoms: _199  and  _200
REMARK   69  A    between atoms: _203  and  _205
REMARK   70  A    between atoms: _205  and  _206
REMARK   71  A    between atoms: _205  and  _208
REMARK   72  A    between atoms: _208  and  _209
REMARK   73  A    between atoms: _210  and  ZN_442
REMARK   74  A    between atoms: _214  and  _216
REMARK   75  A    between atoms: _216  and  _217
REMARK   76  A    between atoms: _216  and  _219
REMARK   77  A    between atoms: _219  and  _220
REMARK   78  A    between atoms: _223  and  _225
REMARK   79  A    between atoms: _225  and  _226
REMARK   80  A    between atoms: _225  and  _228
REMARK   81  A    between atoms: _231  and  _233
REMARK   82  A    between atoms: _233  and  _234
REMARK   83  A    between atoms: _233  and  _236
REMARK   84  A    between atoms: _236  and  _237
REMARK   85  A    between atoms: _242  and  _244
REMARK   86  A    between atoms: _244  and  _245
REMARK   87  A    between atoms: _244  and  _247
REMARK   88  A    between atoms: _247  and  _248
REMARK   89  A    between atoms: _254  and  _256
REMARK   90  A    between atoms: _256  and  _257
REMARK   91  A    between atoms: _259  and  _261
REMARK   92  A    between atoms: _261  and  _262
REMARK   93  A    between atoms: _261  and  _264
REMARK   94  A    between atoms: _267  and  _269
REMARK   95  A    between atoms: _269  and  _270
REMARK   96  A    between atoms: _269  and  _272
REMARK   97  A    between atoms: _272  and  _273
REMARK   98  A    between atoms: _273  and  _274
REMARK   99  A    between atoms: _279  and  _281
REMARK  100  A    between atoms: _281  and  _282
REMARK  101  A    between atoms: _281  and  _284
REMARK  102  A    between atoms: _284  and  _285
REMARK  103  A    between atoms: _288  and  _290
REMARK  104  A    between atoms: _290  and  _291
REMARK  105  A    between atoms: _294  and  _296
REMARK  106  A    between atoms: _296  and  _297
REMARK  107  A    between atoms: _296  and  _299
REMARK  108  A    between atoms: _302  and  _304
REMARK  109  A    between atoms: _304  and  _305
REMARK  110  A    between atoms: _304  and  _307
REMARK  111  A    between atoms: _307  and  _308
REMARK  112  A    between atoms: _311  and  _313
REMARK  113  A    between atoms: _313  and  _314
REMARK  114  A    between atoms: _316  and  _318
REMARK  115  A    between atoms: _318  and  _319
REMARK  116  A    between atoms: _318  and  _321
REMARK  117  A    between atoms: _321  and  _322
REMARK  118  A    between atoms: _324  and  _326
REMARK  119  A    between atoms: _326  and  _327
REMARK  120  A    between atoms: _326  and  _329
REMARK  121  A    between atoms: _329  and  _330
REMARK  122  A    between atoms: _333  and  _335
REMARK  123  A    between atoms: _335  and  _336
REMARK  124  A    between atoms: _335  and  _338
REMARK  125  A    between atoms: _338  and  _339
REMARK  126  A    between atoms: _342  and  _344
REMARK  127  A    between atoms: _344  and  _345
REMARK  128  A    between atoms: _344  and  _347
REMARK  129  A    between atoms: _347  and  _348
REMARK  130  A    between atoms: _352  and  _353
REMARK  131  A    between atoms: _359  and  _360
REMARK  132  A    between atoms: _365  and  _367
REMARK  133  A    between atoms: _367  and  _368
REMARK  134  A    between atoms: _367  and  _370
REMARK  135  A    between atoms: _370  and  _371
REMARK  136  A    between atoms: _374  and  _376
REMARK  137  A    between atoms: _376  and  _377
REMARK  138  A    between atoms: _376  and  _379
REMARK  139  A    between atoms: _379  and  _380
REMARK  140  A    between atoms: _383  and  _385
REMARK  141  A    between atoms: _385  and  _386
REMARK  142  A    between atoms: _385  and  _388
REMARK  143  A    between atoms: _390  and  _392
REMARK  144  A    between atoms: _392  and  _393
REMARK  145  A    between atoms: _392  and  _395
REMARK  146  A    between atoms: _398  and  _400
REMARK  147  A    between atoms: _400  and  _401
REMARK  148  A    between atoms: _400  and  _403
REMARK  149  A    between atoms: _403  and  _404
REMARK  150  A    between atoms: _414  and  _416
REMARK  151  A    between atoms: _416  and  _417
REMARK  152  A    between atoms: _416  and  _419
REMARK  153  A    between atoms: _419  and  _420
REMARK  154  A    between atoms: _425  and  _427
REMARK  155  A    between atoms: _427  and  _428
REMARK  156  A    between atoms: _427  and  _430
REMARK  157  A    between atoms: _430  and  _431
REMARK  158  A    between atoms: _431  and  _432
REMARK  159  A    between atoms: _432  and  _433
REMARK                            x       y       z     vdW  Elec       q    Type
REMARK                         _______ _______ _______ _____ _____    ______ ____
ROOT
ATOM      1  CB  ASN A   1      -1.979  -7.136  10.372  0.00  0.00    +0.110 C 
ENDROOT
BRANCH   1   2
ATOM      2  CG  ASN A   1      -3.477  -7.270  10.204  0.00  0.00    +0.221 C 
ATOM      3  OD1 ASN A   1      -4.081  -8.196  10.745  0.00  0.00    -0.275 OA
ATOM      4  ND2 ASN A   1      -4.090  -6.338   9.456  0.00  0.00    -0.329 N 
ATOM      5 HD21 ASN A   1      -5.119  -6.380   9.314  0.00  0.00    +0.145 HD
ATOM      6 HD22 ASN A   1      -3.535  -5.574   9.019  0.00  0.00    +0.145 HD
ENDBRANCH   1   2
BRANCH   1   7
ATOM      7  CA  ASN A   1      -1.419  -8.038  11.492  0.00  0.00    +0.142 C 
BRANCH   7   8
ATOM      8  N   ASN A   1      -1.767  -9.447  11.254  0.00  0.00    -0.239 NA
ATOM      9  H   ASN A   1      -2.697  -9.678  10.850  0.00  0.00    +0.142 HD
ENDBRANCH   7   8
BRANCH   7  10
ATOM     10  C   ASN A   1      -1.955  -7.601  12.859  0.00  0.00    +0.225 C 
ATOM     11  O   ASN A   1      -2.627  -6.563  12.974  0.00  0.00    -0.287 OA
ENDBRANCH   7  10
ENDBRANCH   1   7
TORSDOF 4
REMARK  Name = ../refined-set-2016/3n4b/3n4b_pocket.pdb
REMARK  159 active torsions:
REMARK  status: ('A' for Active; 'I' for Inactive)
REMARK    1  A    between atoms: _1  and  _3
REMARK    2  A    between atoms: _3  and  _4
REMARK    3  A    between atoms: _3  and  _6
REMARK    4  A    between atoms: _6  and  _7
REMARK    5  A    between atoms: _17  and  _19
REMARK    6  A    between atoms: _19  and  _20
REMARK    7  A    between atoms: _19  and  _22
REMARK    8  A    between atoms: _22  and  _23
REMARK    9  A    between atoms: _28  and  _29
REMARK   10  A    between atoms: _31  and  _33
REMARK   11  A    between atoms: _33  and  _34
REMARK   12  A    between atoms: _33  and  _36
REMARK   13  A    between atoms: _36  and  _37
REMARK   14  A    between atoms: _43  and  _45
REMARK   15  A    between atoms: _45  and  _46
REMARK   16  A    between atoms: _45  and  _48
REMARK   17  A    between atoms: _48  and  _49
REMARK   18  A    between atoms: _52  and  _53
REMARK   19  A    between atoms: _58  and  _60
REMARK   20  A    between atoms: _60  and  _61
REMARK   21  A    between atoms: _60  and  _63
REMARK   22  A    between atoms: _63  and  _64
REMARK   23  A    between atoms: _69  and  _71
REMARK   24  A    between atoms: _71  and  _72
REMARK   25  A    between atoms: _75  and  _77
REMARK   26  A    between atoms: _77  and  _78
REMARK   27  A    between atoms: _77  and  _80
REMARK   28  A    between atoms: _80  and  _81
REMARK   29  A    between atoms: _86  and  _88
REMARK   30  A    between atoms: _88  and  _89
REMARK   31  A    between atoms: _88  and  _91
REMARK   32  A    between atoms: _91  and  _92
REMARK   33  A    between atoms: _92  and  _93
REMARK   34  A    between atoms: _96  and  _98
REMARK   35  A    between atoms: _98  and  _99
REMARK   36  A    between atoms: _98  and  _101
REMARK   37  A    between atoms: _101  and  _102
REMARK   38  A    between atoms: _105  and  _107
REMARK   39  A    between atoms: _107  and  _108
REMARK   40  A    between atoms: _107  and  _110
REMARK   41  A    between atoms: _110  and  _111
REMARK   42  A    between atoms: _111  and  _112
REMARK   43  A    between atoms: _117  and  _119
REMARK   44  A    between atoms: _119  and  _120
REMARK   45  A    between atoms: _119  and  _122
REMARK   46  A    between atoms: _122  and  _123
REMARK   47  A    between atoms: _129  and  _131
REMARK   48  A    between atoms: _142  and  _145
REMARK   49  A    between atoms: _145  and  _146
REMARK   50  A    between atoms: _154  and  _155
REMARK   51  A    between atoms: _163  and  _165
REMARK   52  A    between atoms: _165  and  _166
REMARK   53  A    between atoms: _165  and  _168
REMARK   54  A    between atoms: _168  and  _169
REMARK   55  A    between atoms: _169  and  _170
REMARK   56  A    between atoms: _173  and  _175
REMARK   57  A    between atoms: _175  and  _176
REMARK   58  A    between atoms: _175  and  _178
REMARK   59  A    between atoms: _178  and  _179
REMARK   60  A    between atoms: _184  and  _186
REMARK   61  A    between atoms: _186  and  _187
REMARK   62  A    between atoms: _186  and  _189
REMARK   63  A    between atoms: _189  and  _190
REMARK   64  A    between atoms: _190  and  _191
REMARK   65  A    between atoms: _194  and  _196
REMARK   66  A    between atoms: _196  and  _197
REMARK   67  A    between atoms: _196  and  _199
REMARK   68  A    between atoms: _199  and  _200
REMARK   69  A    between atoms: _203  and  _205
REMARK   70  A    between atoms: _205  and  _206
REMARK   71  A    between atoms: _205  and  _208
REMARK   72  A    between atoms: _208  and  _209
REMARK   73  A    between atoms: _210  and  ZN_442
REMARK   74  A    between atoms: _214  and  _216
REMARK   75  A    between atoms: _216  and  _217
REMARK   76  A    between atoms: _216  and  _219
REMARK   77  A    between atoms: _219  and  _220
REMARK   78  A    between atoms: _223  and  _225
REMARK   79  A    between atoms: _225  and  _226
REMARK   80  A    between atoms: _225  and  _228
REMARK   81  A    between atoms: _231  and  _233
REMARK   82  A    between atoms: _233  and  _234
REMARK   83  A    between atoms: _233  and  _236
REMARK   84  A    between atoms: _236  and  _237
REMARK   85  A    between atoms: _242  and  _244
REMARK   86  A    between atoms: _244  and  _245
REMARK   87  A    between atoms: _244  and  _247
REMARK   88  A    between atoms: _247  and  _248
REMARK   89  A    between atoms: _254  and  _256
REMARK   90  A    between atoms: _256  and  _257
REMARK   91  A    between atoms: _259  and  _261
REMARK   92  A    between atoms: _261  and  _262
REMARK   93  A    between atoms: _261  and  _264
REMARK   94  A    between atoms: _267  and  _269
REMARK   95  A    between atoms: _269  and  _270
REMARK   96  A    between atoms: _269  and  _272
REMARK   97  A    between atoms: _272  and  _273
REMARK   98  A    between atoms: _273  and  _274
REMARK   99  A    between atoms: _279  and  _281
REMARK  100  A    between atoms: _281  and  _282
REMARK  101  A    between atoms: _281  and  _284
REMARK  102  A    between atoms: _284  and  _285
REMARK  103  A    between atoms: _288  and  _290
REMARK  104  A    between atoms: _290  and  _291
REMARK  105  A    between atoms: _294  and  _296
REMARK  106  A    between atoms: _296  and  _297
REMARK  107  A    between atoms: _296  and  _299
REMARK  108  A    between atoms: _302  and  _304
REMARK  109  A    between atoms: _304  and  _305
REMARK  110  A    between atoms: _304  and  _307
REMARK  111  A    between atoms: _307  and  _308
REMARK  112  A    between atoms: _311  and  _313
REMARK  113  A    between atoms: _313  and  _314
REMARK  114  A    between atoms: _316  and  _318
REMARK  115  A    between atoms: _318  and  _319
REMARK  116  A    between atoms: _318  and  _321
REMARK  117  A    between atoms: _321  and  _322
REMARK  118  A    between atoms: _324  and  _326
REMARK  119  A    between atoms: _326  and  _327
REMARK  120  A    between atoms: _326  and  _329
REMARK  121  A    between atoms: _329  and  _330
REMARK  122  A    between atoms: _333  and  _335
REMARK  123  A    between atoms: _335  and  _336
REMARK  124  A    between atoms: _335  and  _338
REMARK  125  A    between atoms: _338  and  _339
REMARK  126  A    between atoms: _342  and  _344
REMARK  127  A    between atoms: _344  and  _345
REMARK  128  A    between atoms: _344  and  _347
REMARK  129  A    between atoms: _347  and  _348
REMARK  130  A    between atoms: _352  and  _353
REMARK  131  A    between atoms: _359  and  _360
REMARK  132  A    between atoms: _365  and  _367
REMARK  133  A    between atoms: _367  and  _368
REMARK  134  A    between atoms: _367  and  _370
REMARK  135  A    between atoms: _370  and  _371
REMARK  136  A    between atoms: _374  and  _376
REMARK  137  A    between atoms: _376  and  _377
REMARK  138  A    between atoms: _376  and  _379
REMARK  139  A    between atoms: _379  and  _380
REMARK  140  A    between atoms: _383  and  _385
REMARK  141  A    between atoms: _385  and  _386
REMARK  142  A    between atoms: _385  and  _388
REMARK  143  A    between atoms: _390  and  _392
REMARK  144  A    between atoms: _392  and  _393
REMARK  145  A    between atoms: _392  and  _395
REMARK  146  A    between atoms: _398  and  _400
REMARK  147  A    between atoms: _400  and  _401
REMARK  148  A    between atoms: _400  and  _403
REMARK  149  A    between atoms: _403  and  _404
REMARK  150  A    between atoms: _414  and  _416
REMARK  151  A    between atoms: _416  and  _417
REMARK  152  A    between atoms: _416  and  _419
REMARK  153  A    between atoms: _419  and  _420
REMARK  154  A    between atoms: _425  and  _427
REMARK  155  A    between atoms: _427  and  _428
REMARK  156  A    between atoms: _427  and  _430
REMARK  157  A    between atoms: _430  and  _431
REMARK  158  A    between atoms: _431  and  _432
REMARK  159  A    between atoms: _432  and  _433
REMARK                            x       y       z     vdW  Elec       q    Type
REMARK                         _______ _______ _______ _____ _____    ______ ____
ROOT
ATOM      1  NE  ARG A   1       2.289  -3.794  21.127  0.00  0.00    -0.265 N 
ATOM      2  CZ  ARG A   1       2.477  -2.818  22.009  0.00  0.00    +0.342 C 
ATOM      3  NH2 ARG A   1       3.709  -2.595  22.485  0.00  0.00    -0.292 N 
ATOM      4 HH21 ARG A   1       3.870  -1.834  23.176  0.00  0.00    +0.255 HD
ATOM      5 HH22 ARG A   1       4.505  -3.183  22.164  0.00  0.00    +0.255 HD
ATOM      6  NH1 ARG A   1       1.480  -2.055  22.423  0.00  0.00    -0.292 N 
ATOM      7 HH11 ARG A   1       1.657  -1.298  23.114  0.00  0.00    +0.255 HD
ATOM      8 HH12 ARG A   1       0.519  -2.211  22.057  0.00  0.00    +0.255 HD
ATOM      9  HE  ARG A   1       3.117  -4.371  20.876  0.00  0.00    +0.259 HD
ENDROOT
BRANCH   1  10
ATOM     10  CD  ARG A   1       1.022  -4.129  20.478  0.00  0.00    +0.174 C 
BRANCH  10  11
ATOM     11  CG  ARG A   1       1.150  -5.503  19.812  0.00  0.00    +0.045 C 
BRANCH  11  12
ATOM     12  CB  ARG A   1       0.028  -5.740  18.802  0.00  0.00    +0.029 C 
BRANCH  12  13
ATOM     13  CA  ARG A   1      -0.069  -7.181  18.292  0.00  0.00    +0.133 C 
BRANCH  13  14
ATOM     14  N   ARG A   1      -1.062  -7.261  17.210  0.00  0.00    -0.239 NA
ATOM     15  H   ARG A   1      -1.892  -6.635  17.241  0.00  0.00    +0.142 HD
ENDBRANCH  13  14
BRANCH  13  16
ATOM     16  C   ARG A   1      -0.585  -8.061  19.413  0.00  0.00    +0.224 C 
ATOM     17  O   ARG A   1      -1.766  -8.045  19.696  0.00  0.00    -0.287 OA
ENDBRANCH  13  16
ENDBRANCH  12  13
ENDBRANCH  11  12
ENDBRANCH  10  11
ENDBRANCH   1  10
TORSDOF 6
REMARK  Name = ../refined-set-2016/3n4b/3n4b_pocket.pdb
REMARK  159 active torsions:
REMARK  status: ('A' for Active; 'I' for Inactive)
REMARK    1  A    between atoms: _1  and  _3
REMARK    2  A    between atoms: _3  and  _4
REMARK    3  A    between atoms: _3  and  _6
REMARK    4  A    between atoms: _6  and  _7
REMARK    5  A    between atoms: _17  and  _19
REMARK    6  A    between atoms: _19  and  _20
REMARK    7  A    between atoms: _19  and  _22
REMARK    8  A    between atoms: _22  and  _23
REMARK    9  A    between atoms: _28  and  _29
REMARK   10  A    between atoms: _31  and  _33
REMARK   11  A    between atoms: _33  and  _34
REMARK   12  A    between atoms: _33  and  _36
REMARK   13  A    between atoms: _36  and  _37
REMARK   14  A    between atoms: _43  and  _45
REMARK   15  A    between atoms: _45  and  _46
REMARK   16  A    between atoms: _45  and  _48
REMARK   17  A    between atoms: _48  and  _49
REMARK   18  A    between atoms: _52  and  _53
REMARK   19  A    between atoms: _58  and  _60
REMARK   20  A    between atoms: _60  and  _61
REMARK   21  A    between atoms: _60  and  _63
REMARK   22  A    between atoms: _63  and  _64
REMARK   23  A    between atoms: _69  and  _71
REMARK   24  A    between atoms: _71  and  _72
REMARK   25  A    between atoms: _75  and  _77
REMARK   26  A    between atoms: _77  and  _78
REMARK   27  A    between atoms: _77  and  _80
REMARK   28  A    between atoms: _80  and  _81
REMARK   29  A    between atoms: _86  and  _88
REMARK   30  A    between atoms: _88  and  _89
REMARK   31  A    between atoms: _88  and  _91
REMARK   32  A    between atoms: _91  and  _92
REMARK   33  A    between atoms: _92  and  _93
REMARK   34  A    between atoms: _96  and  _98
REMARK   35  A    between atoms: _98  and  _99
REMARK   36  A    between atoms: _98  and  _101
REMARK   37  A    between atoms: _101  and  _102
REMARK   38  A    between atoms: _105  and  _107
REMARK   39  A    between atoms: _107  and  _108
REMARK   40  A    between atoms: _107  and  _110
REMARK   41  A    between atoms: _110  and  _111
REMARK   42  A    between atoms: _111  and  _112
REMARK   43  A    between atoms: _117  and  _119
REMARK   44  A    between atoms: _119  and  _120
REMARK   45  A    between atoms: _119  and  _122
REMARK   46  A    between atoms: _122  and  _123
REMARK   47  A    between atoms: _129  and  _131
REMARK   48  A    between atoms: _142  and  _145
REMARK   49  A    between atoms: _145  and  _146
REMARK   50  A    between atoms: _154  and  _155
REMARK   51  A    between atoms: _163  and  _165
REMARK   52  A    between atoms: _165  and  _166
REMARK   53  A    between atoms: _165  and  _168
REMARK   54  A    between atoms: _168  and  _169
REMARK   55  A    between atoms: _169  and  _170
REMARK   56  A    between atoms: _173  and  _175
REMARK   57  A    between atoms: _175  and  _176
REMARK   58  A    between atoms: _175  and  _178
REMARK   59  A    between atoms: _178  and  _179
REMARK   60  A    between atoms: _184  and  _186
REMARK   61  A    between atoms: _186  and  _187
REMARK   62  A    between atoms: _186  and  _189
REMARK   63  A    between atoms: _189  and  _190
REMARK   64  A    between atoms: _190  and  _191
REMARK   65  A    between atoms: _194  and  _196
REMARK   66  A    between atoms: _196  and  _197
REMARK   67  A    between atoms: _196  and  _199
REMARK   68  A    between atoms: _199  and  _200
REMARK   69  A    between atoms: _203  and  _205
REMARK   70  A    between atoms: _205  and  _206
REMARK   71  A    between atoms: _205  and  _208
REMARK   72  A    between atoms: _208  and  _209
REMARK   73  A    between atoms: _210  and  ZN_442
REMARK   74  A    between atoms: _214  and  _216
REMARK   75  A    between atoms: _216  and  _217
REMARK   76  A    between atoms: _216  and  _219
REMARK   77  A    between atoms: _219  and  _220
REMARK   78  A    between atoms: _223  and  _225
REMARK   79  A    between atoms: _225  and  _226
REMARK   80  A    between atoms: _225  and  _228
REMARK   81  A    between atoms: _231  and  _233
REMARK   82  A    between atoms: _233  and  _234
REMARK   83  A    between atoms: _233  and  _236
REMARK   84  A    between atoms: _236  and  _237
REMARK   85  A    between atoms: _242  and  _244
REMARK   86  A    between atoms: _244  and  _245
REMARK   87  A    between atoms: _244  and  _247
REMARK   88  A    between atoms: _247  and  _248
REMARK   89  A    between atoms: _254  and  _256
REMARK   90  A    between atoms: _256  and  _257
REMARK   91  A    between atoms: _259  and  _261
REMARK   92  A    between atoms: _261  and  _262
REMARK   93  A    between atoms: _261  and  _264
REMARK   94  A    between atoms: _267  and  _269
REMARK   95  A    between atoms: _269  and  _270
REMARK   96  A    between atoms: _269  and  _272
REMARK   97  A    between atoms: _272  and  _273
REMARK   98  A    between atoms: _273  and  _274
REMARK   99  A    between atoms: _279  and  _281
REMARK  100  A    between atoms: _281  and  _282
REMARK  101  A    between atoms: _281  and  _284
REMARK  102  A    between atoms: _284  and  _285
REMARK  103  A    between atoms: _288  and  _290
REMARK  104  A    between atoms: _290  and  _291
REMARK  105  A    between atoms: _294  and  _296
REMARK  106  A    between atoms: _296  and  _297
REMARK  107  A    between atoms: _296  and  _299
REMARK  108  A    between atoms: _302  and  _304
REMARK  109  A    between atoms: _304  and  _305
REMARK  110  A    between atoms: _304  and  _307
REMARK  111  A    between atoms: _307  and  _308
REMARK  112  A    between atoms: _311  and  _313
REMARK  113  A    between atoms: _313  and  _314
REMARK  114  A    between atoms: _316  and  _318
REMARK  115  A    between atoms: _318  and  _319
REMARK  116  A    between atoms: _318  and  _321
REMARK  117  A    between atoms: _321  and  _322
REMARK  118  A    between atoms: _324  and  _326
REMARK  119  A    between atoms: _326  and  _327
REMARK  120  A    between atoms: _326  and  _329
REMARK  121  A    between atoms: _329  and  _330
REMARK  122  A    between atoms: _333  and  _335
REMARK  123  A    between atoms: _335  and  _336
REMARK  124  A    between atoms: _335  and  _338
REMARK  125  A    between atoms: _338  and  _339
REMARK  126  A    between atoms: _342  and  _344
REMARK  127  A    between atoms: _344  and  _345
REMARK  128  A    between atoms: _344  and  _347
REMARK  129  A    between atoms: _347  and  _348
REMARK  130  A    between atoms: _352  and  _353
REMARK  131  A    between atoms: _359  and  _360
REMARK  132  A    between atoms: _365  and  _367
REMARK  133  A    between atoms: _367  and  _368
REMARK  134  A    between atoms: _367  and  _370
REMARK  135  A    between atoms: _370  and  _371
REMARK  136  A    between atoms: _374  and  _376
REMARK  137  A    between atoms: _376  and  _377
REMARK  138  A    between atoms: _376  and  _379
REMARK  139  A    between atoms: _379  and  _380
REMARK  140  A    between atoms: _383  and  _385
REMARK  141  A    between atoms: _385  and  _386
REMARK  142  A    between atoms: _385  and  _388
REMARK  143  A    between atoms: _390  and  _392
REMARK  144  A    between atoms: _392  and  _393
REMARK  145  A    between atoms: _392  and  _395
REMARK  146  A    between atoms: _398  and  _400
REMARK  147  A    between atoms: _400  and  _401
REMARK  148  A    between atoms: _400  and  _403
REMARK  149  A    between atoms: _403  and  _404
REMARK  150  A    between atoms: _414  and  _416
REMARK  151  A    between atoms: _416  and  _417
REMARK  152  A    between atoms: _416  and  _419
REMARK  153  A    between atoms: _419  and  _420
REMARK  154  A    between atoms: _425  and  _427
REMARK  155  A    between atoms: _427  and  _428
REMARK  156  A    between atoms: _427  and  _430
REMARK  157  A    between atoms: _430  and  _431
REMARK  158  A    between atoms: _431  and  _432
REMARK  159  A    between atoms: _432  and  _433
REMARK                            x       y       z     vdW  Elec       q    Type
REMARK                         _______ _______ _______ _____ _____    ______ ____
ROOT
ATOM      1  O   HOH     1      -6.761   7.091  10.681  0.00  0.00    +0.000 OA
ENDROOT
TORSDOF 0
REMARK  Name = ../refined-set-2016/3n4b/3n4b_pocket.pdb
REMARK  159 active torsions:
REMARK  status: ('A' for Active; 'I' for Inactive)
REMARK    1  A    between atoms: _1  and  _3
REMARK    2  A    between atoms: _3  and  _4
REMARK    3  A    between atoms: _3  and  _6
REMARK    4  A    between atoms: _6  and  _7
REMARK    5  A    between atoms: _17  and  _19
REMARK    6  A    between atoms: _19  and  _20
REMARK    7  A    between atoms: _19  and  _22
REMARK    8  A    between atoms: _22  and  _23
REMARK    9  A    between atoms: _28  and  _29
REMARK   10  A    between atoms: _31  and  _33
REMARK   11  A    between atoms: _33  and  _34
REMARK   12  A    between atoms: _33  and  _36
REMARK   13  A    between atoms: _36  and  _37
REMARK   14  A    between atoms: _43  and  _45
REMARK   15  A    between atoms: _45  and  _46
REMARK   16  A    between atoms: _45  and  _48
REMARK   17  A    between atoms: _48  and  _49
REMARK   18  A    between atoms: _52  and  _53
REMARK   19  A    between atoms: _58  and  _60
REMARK   20  A    between atoms: _60  and  _61
REMARK   21  A    between atoms: _60  and  _63
REMARK   22  A    between atoms: _63  and  _64
REMARK   23  A    between atoms: _69  and  _71
REMARK   24  A    between atoms: _71  and  _72
REMARK   25  A    between atoms: _75  and  _77
REMARK   26  A    between atoms: _77  and  _78
REMARK   27  A    between atoms: _77  and  _80
REMARK   28  A    between atoms: _80  and  _81
REMARK   29  A    between atoms: _86  and  _88
REMARK   30  A    between atoms: _88  and  _89
REMARK   31  A    between atoms: _88  and  _91
REMARK   32  A    between atoms: _91  and  _92
REMARK   33  A    between atoms: _92  and  _93
REMARK   34  A    between atoms: _96  and  _98
REMARK   35  A    between atoms: _98  and  _99
REMARK   36  A    between atoms: _98  and  _101
REMARK   37  A    between atoms: _101  and  _102
REMARK   38  A    between atoms: _105  and  _107
REMARK   39  A    between atoms: _107  and  _108
REMARK   40  A    between atoms: _107  and  _110
REMARK   41  A    between atoms: _110  and  _111
REMARK   42  A    between atoms: _111  and  _112
REMARK   43  A    between atoms: _117  and  _119
REMARK   44  A    between atoms: _119  and  _120
REMARK   45  A    between atoms: _119  and  _122
REMARK   46  A    between atoms: _122  and  _123
REMARK   47  A    between atoms: _129  and  _131
REMARK   48  A    between atoms: _142  and  _145
REMARK   49  A    between atoms: _145  and  _146
REMARK   50  A    between atoms: _154  and  _155
REMARK   51  A    between atoms: _163  and  _165
REMARK   52  A    between atoms: _165  and  _166
REMARK   53  A    between atoms: _165  and  _168
REMARK   54  A    between atoms: _168  and  _169
REMARK   55  A    between atoms: _169  and  _170
REMARK   56  A    between atoms: _173  and  _175
REMARK   57  A    between atoms: _175  and  _176
REMARK   58  A    between atoms: _175  and  _178
REMARK   59  A    between atoms: _178  and  _179
REMARK   60  A    between atoms: _184  and  _186
REMARK   61  A    between atoms: _186  and  _187
REMARK   62  A    between atoms: _186  and  _189
REMARK   63  A    between atoms: _189  and  _190
REMARK   64  A    between atoms: _190  and  _191
REMARK   65  A    between atoms: _194  and  _196
REMARK   66  A    between atoms: _196  and  _197
REMARK   67  A    between atoms: _196  and  _199
REMARK   68  A    between atoms: _199  and  _200
REMARK   69  A    between atoms: _203  and  _205
REMARK   70  A    between atoms: _205  and  _206
REMARK   71  A    between atoms: _205  and  _208
REMARK   72  A    between atoms: _208  and  _209
REMARK   73  A    between atoms: _210  and  ZN_442
REMARK   74  A    between atoms: _214  and  _216
REMARK   75  A    between atoms: _216  and  _217
REMARK   76  A    between atoms: _216  and  _219
REMARK   77  A    between atoms: _219  and  _220
REMARK   78  A    between atoms: _223  and  _225
REMARK   79  A    between atoms: _225  and  _226
REMARK   80  A    between atoms: _225  and  _228
REMARK   81  A    between atoms: _231  and  _233
REMARK   82  A    between atoms: _233  and  _234
REMARK   83  A    between atoms: _233  and  _236
REMARK   84  A    between atoms: _236  and  _237
REMARK   85  A    between atoms: _242  and  _244
REMARK   86  A    between atoms: _244  and  _245
REMARK   87  A    between atoms: _244  and  _247
REMARK   88  A    between atoms: _247  and  _248
REMARK   89  A    between atoms: _254  and  _256
REMARK   90  A    between atoms: _256  and  _257
REMARK   91  A    between atoms: _259  and  _261
REMARK   92  A    between atoms: _261  and  _262
REMARK   93  A    between atoms: _261  and  _264
REMARK   94  A    between atoms: _267  and  _269
REMARK   95  A    between atoms: _269  and  _270
REMARK   96  A    between atoms: _269  and  _272
REMARK   97  A    between atoms: _272  and  _273
REMARK   98  A    between atoms: _273  and  _274
REMARK   99  A    between atoms: _279  and  _281
REMARK  100  A    between atoms: _281  and  _282
REMARK  101  A    between atoms: _281  and  _284
REMARK  102  A    between atoms: _284  and  _285
REMARK  103  A    between atoms: _288  and  _290
REMARK  104  A    between atoms: _290  and  _291
REMARK  105  A    between atoms: _294  and  _296
REMARK  106  A    between atoms: _296  and  _297
REMARK  107  A    between atoms: _296  and  _299
REMARK  108  A    between atoms: _302  and  _304
REMARK  109  A    between atoms: _304  and  _305
REMARK  110  A    between atoms: _304  and  _307
REMARK  111  A    between atoms: _307  and  _308
REMARK  112  A    between atoms: _311  and  _313
REMARK  113  A    between atoms: _313  and  _314
REMARK  114  A    between atoms: _316  and  _318
REMARK  115  A    between atoms: _318  and  _319
REMARK  116  A    between atoms: _318  and  _321
REMARK  117  A    between atoms: _321  and  _322
REMARK  118  A    between atoms: _324  and  _326
REMARK  119  A    between atoms: _326  and  _327
REMARK  120  A    between atoms: _326  and  _329
REMARK  121  A    between atoms: _329  and  _330
REMARK  122  A    between atoms: _333  and  _335
REMARK  123  A    between atoms: _335  and  _336
REMARK  124  A    between atoms: _335  and  _338
REMARK  125  A    between atoms: _338  and  _339
REMARK  126  A    between atoms: _342  and  _344
REMARK  127  A    between atoms: _344  and  _345
REMARK  128  A    between atoms: _344  and  _347
REMARK  129  A    between atoms: _347  and  _348
REMARK  130  A    between atoms: _352  and  _353
REMARK  131  A    between atoms: _359  and  _360
REMARK  132  A    between atoms: _365  and  _367
REMARK  133  A    between atoms: _367  and  _368
REMARK  134  A    between atoms: _367  and  _370
REMARK  135  A    between atoms: _370  and  _371
REMARK  136  A    between atoms: _374  and  _376
REMARK  137  A    between atoms: _376  and  _377
REMARK  138  A    between atoms: _376  and  _379
REMARK  139  A    between atoms: _379  and  _380
REMARK  140  A    between atoms: _383  and  _385
REMARK  141  A    between atoms: _385  and  _386
REMARK  142  A    between atoms: _385  and  _388
REMARK  143  A    between atoms: _390  and  _392
REMARK  144  A    between atoms: _392  and  _393
REMARK  145  A    between atoms: _392  and  _395
REMARK  146  A    between atoms: _398  and  _400
REMARK  147  A    between atoms: _400  and  _401
REMARK  148  A    between atoms: _400  and  _403
REMARK  149  A    between atoms: _403  and  _404
REMARK  150  A    between atoms: _414  and  _416
REMARK  151  A    between atoms: _416  and  _417
REMARK  152  A    between atoms: _416  and  _419
REMARK  153  A    between atoms: _419  and  _420
REMARK  154  A    between atoms: _425  and  _427
REMARK  155  A    between atoms: _427  and  _428
REMARK  156  A    between atoms: _427  and  _430
REMARK  157  A    between atoms: _430  and  _431
REMARK  158  A    between atoms: _431  and  _432
REMARK  159  A    between atoms: _432  and  _433
REMARK                            x       y       z     vdW  Elec       q    Type
REMARK                         _______ _______ _______ _____ _____    ______ ____
ROOT
ATOM      1  O   HOH     1      -1.212  -4.047  15.810  0.00  0.00    +0.000 OA
ENDROOT
TORSDOF 0
REMARK  Name = ../refined-set-2016/3n4b/3n4b_pocket.pdb
REMARK  159 active torsions:
REMARK  status: ('A' for Active; 'I' for Inactive)
REMARK    1  A    between atoms: _1  and  _3
REMARK    2  A    between atoms: _3  and  _4
REMARK    3  A    between atoms: _3  and  _6
REMARK    4  A    between atoms: _6  and  _7
REMARK    5  A    between atoms: _17  and  _19
REMARK    6  A    between atoms: _19  and  _20
REMARK    7  A    between atoms: _19  and  _22
REMARK    8  A    between atoms: _22  and  _23
REMARK    9  A    between atoms: _28  and  _29
REMARK   10  A    between atoms: _31  and  _33
REMARK   11  A    between atoms: _33  and  _34
REMARK   12  A    between atoms: _33  and  _36
REMARK   13  A    between atoms: _36  and  _37
REMARK   14  A    between atoms: _43  and  _45
REMARK   15  A    between atoms: _45  and  _46
REMARK   16  A    between atoms: _45  and  _48
REMARK   17  A    between atoms: _48  and  _49
REMARK   18  A    between atoms: _52  and  _53
REMARK   19  A    between atoms: _58  and  _60
REMARK   20  A    between atoms: _60  and  _61
REMARK   21  A    between atoms: _60  and  _63
REMARK   22  A    between atoms: _63  and  _64
REMARK   23  A    between atoms: _69  and  _71
REMARK   24  A    between atoms: _71  and  _72
REMARK   25  A    between atoms: _75  and  _77
REMARK   26  A    between atoms: _77  and  _78
REMARK   27  A    between atoms: _77  and  _80
REMARK   28  A    between atoms: _80  and  _81
REMARK   29  A    between atoms: _86  and  _88
REMARK   30  A    between atoms: _88  and  _89
REMARK   31  A    between atoms: _88  and  _91
REMARK   32  A    between atoms: _91  and  _92
REMARK   33  A    between atoms: _92  and  _93
REMARK   34  A    between atoms: _96  and  _98
REMARK   35  A    between atoms: _98  and  _99
REMARK   36  A    between atoms: _98  and  _101
REMARK   37  A    between atoms: _101  and  _102
REMARK   38  A    between atoms: _105  and  _107
REMARK   39  A    between atoms: _107  and  _108
REMARK   40  A    between atoms: _107  and  _110
REMARK   41  A    between atoms: _110  and  _111
REMARK   42  A    between atoms: _111  and  _112
REMARK   43  A    between atoms: _117  and  _119
REMARK   44  A    between atoms: _119  and  _120
REMARK   45  A    between atoms: _119  and  _122
REMARK   46  A    between atoms: _122  and  _123
REMARK   47  A    between atoms: _129  and  _131
REMARK   48  A    between atoms: _142  and  _145
REMARK   49  A    between atoms: _145  and  _146
REMARK   50  A    between atoms: _154  and  _155
REMARK   51  A    between atoms: _163  and  _165
REMARK   52  A    between atoms: _165  and  _166
REMARK   53  A    between atoms: _165  and  _168
REMARK   54  A    between atoms: _168  and  _169
REMARK   55  A    between atoms: _169  and  _170
REMARK   56  A    between atoms: _173  and  _175
REMARK   57  A    between atoms: _175  and  _176
REMARK   58  A    between atoms: _175  and  _178
REMARK   59  A    between atoms: _178  and  _179
REMARK   60  A    between atoms: _184  and  _186
REMARK   61  A    between atoms: _186  and  _187
REMARK   62  A    between atoms: _186  and  _189
REMARK   63  A    between atoms: _189  and  _190
REMARK   64  A    between atoms: _190  and  _191
REMARK   65  A    between atoms: _194  and  _196
REMARK   66  A    between atoms: _196  and  _197
REMARK   67  A    between atoms: _196  and  _199
REMARK   68  A    between atoms: _199  and  _200
REMARK   69  A    between atoms: _203  and  _205
REMARK   70  A    between atoms: _205  and  _206
REMARK   71  A    between atoms: _205  and  _208
REMARK   72  A    between atoms: _208  and  _209
REMARK   73  A    between atoms: _210  and  ZN_442
REMARK   74  A    between atoms: _214  and  _216
REMARK   75  A    between atoms: _216  and  _217
REMARK   76  A    between atoms: _216  and  _219
REMARK   77  A    between atoms: _219  and  _220
REMARK   78  A    between atoms: _223  and  _225
REMARK   79  A    between atoms: _225  and  _226
REMARK   80  A    between atoms: _225  and  _228
REMARK   81  A    between atoms: _231  and  _233
REMARK   82  A    between atoms: _233  and  _234
REMARK   83  A    between atoms: _233  and  _236
REMARK   84  A    between atoms: _236  and  _237
REMARK   85  A    between atoms: _242  and  _244
REMARK   86  A    between atoms: _244  and  _245
REMARK   87  A    between atoms: _244  and  _247
REMARK   88  A    between atoms: _247  and  _248
REMARK   89  A    between atoms: _254  and  _256
REMARK   90  A    between atoms: _256  and  _257
REMARK   91  A    between atoms: _259  and  _261
REMARK   92  A    between atoms: _261  and  _262
REMARK   93  A    between atoms: _261  and  _264
REMARK   94  A    between atoms: _267  and  _269
REMARK   95  A    between atoms: _269  and  _270
REMARK   96  A    between atoms: _269  and  _272
REMARK   97  A    between atoms: _272  and  _273
REMARK   98  A    between atoms: _273  and  _274
REMARK   99  A    between atoms: _279  and  _281
REMARK  100  A    between atoms: _281  and  _282
REMARK  101  A    between atoms: _281  and  _284
REMARK  102  A    between atoms: _284  and  _285
REMARK  103  A    between atoms: _288  and  _290
REMARK  104  A    between atoms: _290  and  _291
REMARK  105  A    between atoms: _294  and  _296
REMARK  106  A    between atoms: _296  and  _297
REMARK  107  A    between atoms: _296  and  _299
REMARK  108  A    between atoms: _302  and  _304
REMARK  109  A    between atoms: _304  and  _305
REMARK  110  A    between atoms: _304  and  _307
REMARK  111  A    between atoms: _307  and  _308
REMARK  112  A    between atoms: _311  and  _313
REMARK  113  A    between atoms: _313  and  _314
REMARK  114  A    between atoms: _316  and  _318
REMARK  115  A    between atoms: _318  and  _319
REMARK  116  A    between atoms: _318  and  _321
REMARK  117  A    between atoms: _321  and  _322
REMARK  118  A    between atoms: _324  and  _326
REMARK  119  A    between atoms: _326  and  _327
REMARK  120  A    between atoms: _326  and  _329
REMARK  121  A    between atoms: _329  and  _330
REMARK  122  A    between atoms: _333  and  _335
REMARK  123  A    between atoms: _335  and  _336
REMARK  124  A    between atoms: _335  and  _338
REMARK  125  A    between atoms: _338  and  _339
REMARK  126  A    between atoms: _342  and  _344
REMARK  127  A    between atoms: _344  and  _345
REMARK  128  A    between atoms: _344  and  _347
REMARK  129  A    between atoms: _347  and  _348
REMARK  130  A    between atoms: _352  and  _353
REMARK  131  A    between atoms: _359  and  _360
REMARK  132  A    between atoms: _365  and  _367
REMARK  133  A    between atoms: _367  and  _368
REMARK  134  A    between atoms: _367  and  _370
REMARK  135  A    between atoms: _370  and  _371
REMARK  136  A    between atoms: _374  and  _376
REMARK  137  A    between atoms: _376  and  _377
REMARK  138  A    between atoms: _376  and  _379
REMARK  139  A    between atoms: _379  and  _380
REMARK  140  A    between atoms: _383  and  _385
REMARK  141  A    between atoms: _385  and  _386
REMARK  142  A    between atoms: _385  and  _388
REMARK  143  A    between atoms: _390  and  _392
REMARK  144  A    between atoms: _392  and  _393
REMARK  145  A    between atoms: _392  and  _395
REMARK  146  A    between atoms: _398  and  _400
REMARK  147  A    between atoms: _400  and  _401
REMARK  148  A    between atoms: _400  and  _403
REMARK  149  A    between atoms: _403  and  _404
REMARK  150  A    between atoms: _414  and  _416
REMARK  151  A    between atoms: _416  and  _417
REMARK  152  A    between atoms: _416  and  _419
REMARK  153  A    between atoms: _419  and  _420
REMARK  154  A    between atoms: _425  and  _427
REMARK  155  A    between atoms: _427  and  _428
REMARK  156  A    between atoms: _427  and  _430
REMARK  157  A    between atoms: _430  and  _431
REMARK  158  A    between atoms: _431  and  _432
REMARK  159  A    between atoms: _432  and  _433
REMARK                            x       y       z     vdW  Elec       q    Type
REMARK                         _______ _______ _______ _____ _____    ______ ____
ROOT
ATOM      1  O   HOH     1       5.458   7.202  20.314  0.00  0.00    +0.000 OA
ENDROOT
TORSDOF 0
REMARK  Name = ../refined-set-2016/3n4b/3n4b_pocket.pdb
REMARK  159 active torsions:
REMARK  status: ('A' for Active; 'I' for Inactive)
REMARK    1  A    between atoms: _1  and  _3
REMARK    2  A    between atoms: _3  and  _4
REMARK    3  A    between atoms: _3  and  _6
REMARK    4  A    between atoms: _6  and  _7
REMARK    5  A    between atoms: _17  and  _19
REMARK    6  A    between atoms: _19  and  _20
REMARK    7  A    between atoms: _19  and  _22
REMARK    8  A    between atoms: _22  and  _23
REMARK    9  A    between atoms: _28  and  _29
REMARK   10  A    between atoms: _31  and  _33
REMARK   11  A    between atoms: _33  and  _34
REMARK   12  A    between atoms: _33  and  _36
REMARK   13  A    between atoms: _36  and  _37
REMARK   14  A    between atoms: _43  and  _45
REMARK   15  A    between atoms: _45  and  _46
REMARK   16  A    between atoms: _45  and  _48
REMARK   17  A    between atoms: _48  and  _49
REMARK   18  A    between atoms: _52  and  _53
REMARK   19  A    between atoms: _58  and  _60
REMARK   20  A    between atoms: _60  and  _61
REMARK   21  A    between atoms: _60  and  _63
REMARK   22  A    between atoms: _63  and  _64
REMARK   23  A    between atoms: _69  and  _71
REMARK   24  A    between atoms: _71  and  _72
REMARK   25  A    between atoms: _75  and  _77
REMARK   26  A    between atoms: _77  and  _78
REMARK   27  A    between atoms: _77  and  _80
REMARK   28  A    between atoms: _80  and  _81
REMARK   29  A    between atoms: _86  and  _88
REMARK   30  A    between atoms: _88  and  _89
REMARK   31  A    between atoms: _88  and  _91
REMARK   32  A    between atoms: _91  and  _92
REMARK   33  A    between atoms: _92  and  _93
REMARK   34  A    between atoms: _96  and  _98
REMARK   35  A    between atoms: _98  and  _99
REMARK   36  A    between atoms: _98  and  _101
REMARK   37  A    between atoms: _101  and  _102
REMARK   38  A    between atoms: _105  and  _107
REMARK   39  A    between atoms: _107  and  _108
REMARK   40  A    between atoms: _107  and  _110
REMARK   41  A    between atoms: _110  and  _111
REMARK   42  A    between atoms: _111  and  _112
REMARK   43  A    between atoms: _117  and  _119
REMARK   44  A    between atoms: _119  and  _120
REMARK   45  A    between atoms: _119  and  _122
REMARK   46  A    between atoms: _122  and  _123
REMARK   47  A    between atoms: _129  and  _131
REMARK   48  A    between atoms: _142  and  _145
REMARK   49  A    between atoms: _145  and  _146
REMARK   50  A    between atoms: _154  and  _155
REMARK   51  A    between atoms: _163  and  _165
REMARK   52  A    between atoms: _165  and  _166
REMARK   53  A    between atoms: _165  and  _168
REMARK   54  A    between atoms: _168  and  _169
REMARK   55  A    between atoms: _169  and  _170
REMARK   56  A    between atoms: _173  and  _175
REMARK   57  A    between atoms: _175  and  _176
REMARK   58  A    between atoms: _175  and  _178
REMARK   59  A    between atoms: _178  and  _179
REMARK   60  A    between atoms: _184  and  _186
REMARK   61  A    between atoms: _186  and  _187
REMARK   62  A    between atoms: _186  and  _189
REMARK   63  A    between atoms: _189  and  _190
REMARK   64  A    between atoms: _190  and  _191
REMARK   65  A    between atoms: _194  and  _196
REMARK   66  A    between atoms: _196  and  _197
REMARK   67  A    between atoms: _196  and  _199
REMARK   68  A    between atoms: _199  and  _200
REMARK   69  A    between atoms: _203  and  _205
REMARK   70  A    between atoms: _205  and  _206
REMARK   71  A    between atoms: _205  and  _208
REMARK   72  A    between atoms: _208  and  _209
REMARK   73  A    between atoms: _210  and  ZN_442
REMARK   74  A    between atoms: _214  and  _216
REMARK   75  A    between atoms: _216  and  _217
REMARK   76  A    between atoms: _216  and  _219
REMARK   77  A    between atoms: _219  and  _220
REMARK   78  A    between atoms: _223  and  _225
REMARK   79  A    between atoms: _225  and  _226
REMARK   80  A    between atoms: _225  and  _228
REMARK   81  A    between atoms: _231  and  _233
REMARK   82  A    between atoms: _233  and  _234
REMARK   83  A    between atoms: _233  and  _236
REMARK   84  A    between atoms: _236  and  _237
REMARK   85  A    between atoms: _242  and  _244
REMARK   86  A    between atoms: _244  and  _245
REMARK   87  A    between atoms: _244  and  _247
REMARK   88  A    between atoms: _247  and  _248
REMARK   89  A    between atoms: _254  and  _256
REMARK   90  A    between atoms: _256  and  _257
REMARK   91  A    between atoms: _259  and  _261
REMARK   92  A    between atoms: _261  and  _262
REMARK   93  A    between atoms: _261  and  _264
REMARK   94  A    between atoms: _267  and  _269
REMARK   95  A    between atoms: _269  and  _270
REMARK   96  A    between atoms: _269  and  _272
REMARK   97  A    between atoms: _272  and  _273
REMARK   98  A    between atoms: _273  and  _274
REMARK   99  A    between atoms: _279  and  _281
REMARK  100  A    between atoms: _281  and  _282
REMARK  101  A    between atoms: _281  and  _284
REMARK  102  A    between atoms: _284  and  _285
REMARK  103  A    between atoms: _288  and  _290
REMARK  104  A    between atoms: _290  and  _291
REMARK  105  A    between atoms: _294  and  _296
REMARK  106  A    between atoms: _296  and  _297
REMARK  107  A    between atoms: _296  and  _299
REMARK  108  A    between atoms: _302  and  _304
REMARK  109  A    between atoms: _304  and  _305
REMARK  110  A    between atoms: _304  and  _307
REMARK  111  A    between atoms: _307  and  _308
REMARK  112  A    between atoms: _311  and  _313
REMARK  113  A    between atoms: _313  and  _314
REMARK  114  A    between atoms: _316  and  _318
REMARK  115  A    between atoms: _318  and  _319
REMARK  116  A    between atoms: _318  and  _321
REMARK  117  A    between atoms: _321  and  _322
REMARK  118  A    between atoms: _324  and  _326
REMARK  119  A    between atoms: _326  and  _327
REMARK  120  A    between atoms: _326  and  _329
REMARK  121  A    between atoms: _329  and  _330
REMARK  122  A    between atoms: _333  and  _335
REMARK  123  A    between atoms: _335  and  _336
REMARK  124  A    between atoms: _335  and  _338
REMARK  125  A    between atoms: _338  and  _339
REMARK  126  A    between atoms: _342  and  _344
REMARK  127  A    between atoms: _344  and  _345
REMARK  128  A    between atoms: _344  and  _347
REMARK  129  A    between atoms: _347  and  _348
REMARK  130  A    between atoms: _352  and  _353
REMARK  131  A    between atoms: _359  and  _360
REMARK  132  A    between atoms: _365  and  _367
REMARK  133  A    between atoms: _367  and  _368
REMARK  134  A    between atoms: _367  and  _370
REMARK  135  A    between atoms: _370  and  _371
REMARK  136  A    between atoms: _374  and  _376
REMARK  137  A    between atoms: _376  and  _377
REMARK  138  A    between atoms: _376  and  _379
REMARK  139  A    between atoms: _379  and  _380
REMARK  140  A    between atoms: _383  and  _385
REMARK  141  A    between atoms: _385  and  _386
REMARK  142  A    between atoms: _385  and  _388
REMARK  143  A    between atoms: _390  and  _392
REMARK  144  A    between atoms: _392  and  _393
REMARK  145  A    between atoms: _392  and  _395
REMARK  146  A    between atoms: _398  and  _400
REMARK  147  A    between atoms: _400  and  _401
REMARK  148  A    between atoms: _400  and  _403
REMARK  149  A    between atoms: _403  and  _404
REMARK  150  A    between atoms: _414  and  _416
REMARK  151  A    between atoms: _416  and  _417
REMARK  152  A    between atoms: _416  and  _419
REMARK  153  A    between atoms: _419  and  _420
REMARK  154  A    between atoms: _425  and  _427
REMARK  155  A    between atoms: _427  and  _428
REMARK  156  A    between atoms: _427  and  _430
REMARK  157  A    between atoms: _430  and  _431
REMARK  158  A    between atoms: _431  and  _432
REMARK  159  A    between atoms: _432  and  _433
REMARK                            x       y       z     vdW  Elec       q    Type
REMARK                         _______ _______ _______ _____ _____    ______ ____
ROOT
ATOM      1  O   HOH     1      -0.434   4.974  13.265  0.00  0.00    +0.000 OA
ENDROOT
TORSDOF 0
REMARK  Name = ../refined-set-2016/3n4b/3n4b_pocket.pdb
REMARK  159 active torsions:
REMARK  status: ('A' for Active; 'I' for Inactive)
REMARK    1  A    between atoms: _1  and  _3
REMARK    2  A    between atoms: _3  and  _4
REMARK    3  A    between atoms: _3  and  _6
REMARK    4  A    between atoms: _6  and  _7
REMARK    5  A    between atoms: _17  and  _19
REMARK    6  A    between atoms: _19  and  _20
REMARK    7  A    between atoms: _19  and  _22
REMARK    8  A    between atoms: _22  and  _23
REMARK    9  A    between atoms: _28  and  _29
REMARK   10  A    between atoms: _31  and  _33
REMARK   11  A    between atoms: _33  and  _34
REMARK   12  A    between atoms: _33  and  _36
REMARK   13  A    between atoms: _36  and  _37
REMARK   14  A    between atoms: _43  and  _45
REMARK   15  A    between atoms: _45  and  _46
REMARK   16  A    between atoms: _45  and  _48
REMARK   17  A    between atoms: _48  and  _49
REMARK   18  A    between atoms: _52  and  _53
REMARK   19  A    between atoms: _58  and  _60
REMARK   20  A    between atoms: _60  and  _61
REMARK   21  A    between atoms: _60  and  _63
REMARK   22  A    between atoms: _63  and  _64
REMARK   23  A    between atoms: _69  and  _71
REMARK   24  A    between atoms: _71  and  _72
REMARK   25  A    between atoms: _75  and  _77
REMARK   26  A    between atoms: _77  and  _78
REMARK   27  A    between atoms: _77  and  _80
REMARK   28  A    between atoms: _80  and  _81
REMARK   29  A    between atoms: _86  and  _88
REMARK   30  A    between atoms: _88  and  _89
REMARK   31  A    between atoms: _88  and  _91
REMARK   32  A    between atoms: _91  and  _92
REMARK   33  A    between atoms: _92  and  _93
REMARK   34  A    between atoms: _96  and  _98
REMARK   35  A    between atoms: _98  and  _99
REMARK   36  A    between atoms: _98  and  _101
REMARK   37  A    between atoms: _101  and  _102
REMARK   38  A    between atoms: _105  and  _107
REMARK   39  A    between atoms: _107  and  _108
REMARK   40  A    between atoms: _107  and  _110
REMARK   41  A    between atoms: _110  and  _111
REMARK   42  A    between atoms: _111  and  _112
REMARK   43  A    between atoms: _117  and  _119
REMARK   44  A    between atoms: _119  and  _120
REMARK   45  A    between atoms: _119  and  _122
REMARK   46  A    between atoms: _122  and  _123
REMARK   47  A    between atoms: _129  and  _131
REMARK   48  A    between atoms: _142  and  _145
REMARK   49  A    between atoms: _145  and  _146
REMARK   50  A    between atoms: _154  and  _155
REMARK   51  A    between atoms: _163  and  _165
REMARK   52  A    between atoms: _165  and  _166
REMARK   53  A    between atoms: _165  and  _168
REMARK   54  A    between atoms: _168  and  _169
REMARK   55  A    between atoms: _169  and  _170
REMARK   56  A    between atoms: _173  and  _175
REMARK   57  A    between atoms: _175  and  _176
REMARK   58  A    between atoms: _175  and  _178
REMARK   59  A    between atoms: _178  and  _179
REMARK   60  A    between atoms: _184  and  _186
REMARK   61  A    between atoms: _186  and  _187
REMARK   62  A    between atoms: _186  and  _189
REMARK   63  A    between atoms: _189  and  _190
REMARK   64  A    between atoms: _190  and  _191
REMARK   65  A    between atoms: _194  and  _196
REMARK   66  A    between atoms: _196  and  _197
REMARK   67  A    between atoms: _196  and  _199
REMARK   68  A    between atoms: _199  and  _200
REMARK   69  A    between atoms: _203  and  _205
REMARK   70  A    between atoms: _205  and  _206
REMARK   71  A    between atoms: _205  and  _208
REMARK   72  A    between atoms: _208  and  _209
REMARK   73  A    between atoms: _210  and  ZN_442
REMARK   74  A    between atoms: _214  and  _216
REMARK   75  A    between atoms: _216  and  _217
REMARK   76  A    between atoms: _216  and  _219
REMARK   77  A    between atoms: _219  and  _220
REMARK   78  A    between atoms: _223  and  _225
REMARK   79  A    between atoms: _225  and  _226
REMARK   80  A    between atoms: _225  and  _228
REMARK   81  A    between atoms: _231  and  _233
REMARK   82  A    between atoms: _233  and  _234
REMARK   83  A    between atoms: _233  and  _236
REMARK   84  A    between atoms: _236  and  _237
REMARK   85  A    between atoms: _242  and  _244
REMARK   86  A    between atoms: _244  and  _245
REMARK   87  A    between atoms: _244  and  _247
REMARK   88  A    between atoms: _247  and  _248
REMARK   89  A    between atoms: _254  and  _256
REMARK   90  A    between atoms: _256  and  _257
REMARK   91  A    between atoms: _259  and  _261
REMARK   92  A    between atoms: _261  and  _262
REMARK   93  A    between atoms: _261  and  _264
REMARK   94  A    between atoms: _267  and  _269
REMARK   95  A    between atoms: _269  and  _270
REMARK   96  A    between atoms: _269  and  _272
REMARK   97  A    between atoms: _272  and  _273
REMARK   98  A    between atoms: _273  and  _274
REMARK   99  A    between atoms: _279  and  _281
REMARK  100  A    between atoms: _281  and  _282
REMARK  101  A    between atoms: _281  and  _284
REMARK  102  A    between atoms: _284  and  _285
REMARK  103  A    between atoms: _288  and  _290
REMARK  104  A    between atoms: _290  and  _291
REMARK  105  A    between atoms: _294  and  _296
REMARK  106  A    between atoms: _296  and  _297
REMARK  107  A    between atoms: _296  and  _299
REMARK  108  A    between atoms: _302  and  _304
REMARK  109  A    between atoms: _304  and  _305
REMARK  110  A    between atoms: _304  and  _307
REMARK  111  A    between atoms: _307  and  _308
REMARK  112  A    between atoms: _311  and  _313
REMARK  113  A    between atoms: _313  and  _314
REMARK  114  A    between atoms: _316  and  _318
REMARK  115  A    between atoms: _318  and  _319
REMARK  116  A    between atoms: _318  and  _321
REMARK  117  A    between atoms: _321  and  _322
REMARK  118  A    between atoms: _324  and  _326
REMARK  119  A    between atoms: _326  and  _327
REMARK  120  A    between atoms: _326  and  _329
REMARK  121  A    between atoms: _329  and  _330
REMARK  122  A    between atoms: _333  and  _335
REMARK  123  A    between atoms: _335  and  _336
REMARK  124  A    between atoms: _335  and  _338
REMARK  125  A    between atoms: _338  and  _339
REMARK  126  A    between atoms: _342  and  _344
REMARK  127  A    between atoms: _344  and  _345
REMARK  128  A    between atoms: _344  and  _347
REMARK  129  A    between atoms: _347  and  _348
REMARK  130  A    between atoms: _352  and  _353
REMARK  131  A    between atoms: _359  and  _360
REMARK  132  A    between atoms: _365  and  _367
REMARK  133  A    between atoms: _367  and  _368
REMARK  134  A    between atoms: _367  and  _370
REMARK  135  A    between atoms: _370  and  _371
REMARK  136  A    between atoms: _374  and  _376
REMARK  137  A    between atoms: _376  and  _377
REMARK  138  A    between atoms: _376  and  _379
REMARK  139  A    between atoms: _379  and  _380
REMARK  140  A    between atoms: _383  and  _385
REMARK  141  A    between atoms: _385  and  _386
REMARK  142  A    between atoms: _385  and  _388
REMARK  143  A    between atoms: _390  and  _392
REMARK  144  A    between atoms: _392  and  _393
REMARK  145  A    between atoms: _392  and  _395
REMARK  146  A    between atoms: _398  and  _400
REMARK  147  A    between atoms: _400  and  _401
REMARK  148  A    between atoms: _400  and  _403
REMARK  149  A    between atoms: _403  and  _404
REMARK  150  A    between atoms: _414  and  _416
REMARK  151  A    between atoms: _416  and  _417
REMARK  152  A    between atoms: _416  and  _419
REMARK  153  A    between atoms: _419  and  _420
REMARK  154  A    between atoms: _425  and  _427
REMARK  155  A    between atoms: _427  and  _428
REMARK  156  A    between atoms: _427  and  _430
REMARK  157  A    between atoms: _430  and  _431
REMARK  158  A    between atoms: _431  and  _432
REMARK  159  A    between atoms: _432  and  _433
REMARK                            x       y       z     vdW  Elec       q    Type
REMARK                         _______ _______ _______ _____ _____    ______ ____
ROOT
ATOM      1  O   HOH     1      -4.062   5.002   7.220  0.00  0.00    +0.000 OA
ENDROOT
TORSDOF 0
REMARK  Name = ../refined-set-2016/3n4b/3n4b_pocket.pdb
REMARK  159 active torsions:
REMARK  status: ('A' for Active; 'I' for Inactive)
REMARK    1  A    between atoms: _1  and  _3
REMARK    2  A    between atoms: _3  and  _4
REMARK    3  A    between atoms: _3  and  _6
REMARK    4  A    between atoms: _6  and  _7
REMARK    5  A    between atoms: _17  and  _19
REMARK    6  A    between atoms: _19  and  _20
REMARK    7  A    between atoms: _19  and  _22
REMARK    8  A    between atoms: _22  and  _23
REMARK    9  A    between atoms: _28  and  _29
REMARK   10  A    between atoms: _31  and  _33
REMARK   11  A    between atoms: _33  and  _34
REMARK   12  A    between atoms: _33  and  _36
REMARK   13  A    between atoms: _36  and  _37
REMARK   14  A    between atoms: _43  and  _45
REMARK   15  A    between atoms: _45  and  _46
REMARK   16  A    between atoms: _45  and  _48
REMARK   17  A    between atoms: _48  and  _49
REMARK   18  A    between atoms: _52  and  _53
REMARK   19  A    between atoms: _58  and  _60
REMARK   20  A    between atoms: _60  and  _61
REMARK   21  A    between atoms: _60  and  _63
REMARK   22  A    between atoms: _63  and  _64
REMARK   23  A    between atoms: _69  and  _71
REMARK   24  A    between atoms: _71  and  _72
REMARK   25  A    between atoms: _75  and  _77
REMARK   26  A    between atoms: _77  and  _78
REMARK   27  A    between atoms: _77  and  _80
REMARK   28  A    between atoms: _80  and  _81
REMARK   29  A    between atoms: _86  and  _88
REMARK   30  A    between atoms: _88  and  _89
REMARK   31  A    between atoms: _88  and  _91
REMARK   32  A    between atoms: _91  and  _92
REMARK   33  A    between atoms: _92  and  _93
REMARK   34  A    between atoms: _96  and  _98
REMARK   35  A    between atoms: _98  and  _99
REMARK   36  A    between atoms: _98  and  _101
REMARK   37  A    between atoms: _101  and  _102
REMARK   38  A    between atoms: _105  and  _107
REMARK   39  A    between atoms: _107  and  _108
REMARK   40  A    between atoms: _107  and  _110
REMARK   41  A    between atoms: _110  and  _111
REMARK   42  A    between atoms: _111  and  _112
REMARK   43  A    between atoms: _117  and  _119
REMARK   44  A    between atoms: _119  and  _120
REMARK   45  A    between atoms: _119  and  _122
REMARK   46  A    between atoms: _122  and  _123
REMARK   47  A    between atoms: _129  and  _131
REMARK   48  A    between atoms: _142  and  _145
REMARK   49  A    between atoms: _145  and  _146
REMARK   50  A    between atoms: _154  and  _155
REMARK   51  A    between atoms: _163  and  _165
REMARK   52  A    between atoms: _165  and  _166
REMARK   53  A    between atoms: _165  and  _168
REMARK   54  A    between atoms: _168  and  _169
REMARK   55  A    between atoms: _169  and  _170
REMARK   56  A    between atoms: _173  and  _175
REMARK   57  A    between atoms: _175  and  _176
REMARK   58  A    between atoms: _175  and  _178
REMARK   59  A    between atoms: _178  and  _179
REMARK   60  A    between atoms: _184  and  _186
REMARK   61  A    between atoms: _186  and  _187
REMARK   62  A    between atoms: _186  and  _189
REMARK   63  A    between atoms: _189  and  _190
REMARK   64  A    between atoms: _190  and  _191
REMARK   65  A    between atoms: _194  and  _196
REMARK   66  A    between atoms: _196  and  _197
REMARK   67  A    between atoms: _196  and  _199
REMARK   68  A    between atoms: _199  and  _200
REMARK   69  A    between atoms: _203  and  _205
REMARK   70  A    between atoms: _205  and  _206
REMARK   71  A    between atoms: _205  and  _208
REMARK   72  A    between atoms: _208  and  _209
REMARK   73  A    between atoms: _210  and  ZN_442
REMARK   74  A    between atoms: _214  and  _216
REMARK   75  A    between atoms: _216  and  _217
REMARK   76  A    between atoms: _216  and  _219
REMARK   77  A    between atoms: _219  and  _220
REMARK   78  A    between atoms: _223  and  _225
REMARK   79  A    between atoms: _225  and  _226
REMARK   80  A    between atoms: _225  and  _228
REMARK   81  A    between atoms: _231  and  _233
REMARK   82  A    between atoms: _233  and  _234
REMARK   83  A    between atoms: _233  and  _236
REMARK   84  A    between atoms: _236  and  _237
REMARK   85  A    between atoms: _242  and  _244
REMARK   86  A    between atoms: _244  and  _245
REMARK   87  A    between atoms: _244  and  _247
REMARK   88  A    between atoms: _247  and  _248
REMARK   89  A    between atoms: _254  and  _256
REMARK   90  A    between atoms: _256  and  _257
REMARK   91  A    between atoms: _259  and  _261
REMARK   92  A    between atoms: _261  and  _262
REMARK   93  A    between atoms: _261  and  _264
REMARK   94  A    between atoms: _267  and  _269
REMARK   95  A    between atoms: _269  and  _270
REMARK   96  A    between atoms: _269  and  _272
REMARK   97  A    between atoms: _272  and  _273
REMARK   98  A    between atoms: _273  and  _274
REMARK   99  A    between atoms: _279  and  _281
REMARK  100  A    between atoms: _281  and  _282
REMARK  101  A    between atoms: _281  and  _284
REMARK  102  A    between atoms: _284  and  _285
REMARK  103  A    between atoms: _288  and  _290
REMARK  104  A    between atoms: _290  and  _291
REMARK  105  A    between atoms: _294  and  _296
REMARK  106  A    between atoms: _296  and  _297
REMARK  107  A    between atoms: _296  and  _299
REMARK  108  A    between atoms: _302  and  _304
REMARK  109  A    between atoms: _304  and  _305
REMARK  110  A    between atoms: _304  and  _307
REMARK  111  A    between atoms: _307  and  _308
REMARK  112  A    between atoms: _311  and  _313
REMARK  113  A    between atoms: _313  and  _314
REMARK  114  A    between atoms: _316  and  _318
REMARK  115  A    between atoms: _318  and  _319
REMARK  116  A    between atoms: _318  and  _321
REMARK  117  A    between atoms: _321  and  _322
REMARK  118  A    between atoms: _324  and  _326
REMARK  119  A    between atoms: _326  and  _327
REMARK  120  A    between atoms: _326  and  _329
REMARK  121  A    between atoms: _329  and  _330
REMARK  122  A    between atoms: _333  and  _335
REMARK  123  A    between atoms: _335  and  _336
REMARK  124  A    between atoms: _335  and  _338
REMARK  125  A    between atoms: _338  and  _339
REMARK  126  A    between atoms: _342  and  _344
REMARK  127  A    between atoms: _344  and  _345
REMARK  128  A    between atoms: _344  and  _347
REMARK  129  A    between atoms: _347  and  _348
REMARK  130  A    between atoms: _352  and  _353
REMARK  131  A    between atoms: _359  and  _360
REMARK  132  A    between atoms: _365  and  _367
REMARK  133  A    between atoms: _367  and  _368
REMARK  134  A    between atoms: _367  and  _370
REMARK  135  A    between atoms: _370  and  _371
REMARK  136  A    between atoms: _374  and  _376
REMARK  137  A    between atoms: _376  and  _377
REMARK  138  A    between atoms: _376  and  _379
REMARK  139  A    between atoms: _379  and  _380
REMARK  140  A    between atoms: _383  and  _385
REMARK  141  A    between atoms: _385  and  _386
REMARK  142  A    between atoms: _385  and  _388
REMARK  143  A    between atoms: _390  and  _392
REMARK  144  A    between atoms: _392  and  _393
REMARK  145  A    between atoms: _392  and  _395
REMARK  146  A    between atoms: _398  and  _400
REMARK  147  A    between atoms: _400  and  _401
REMARK  148  A    between atoms: _400  and  _403
REMARK  149  A    between atoms: _403  and  _404
REMARK  150  A    between atoms: _414  and  _416
REMARK  151  A    between atoms: _416  and  _417
REMARK  152  A    between atoms: _416  and  _419
REMARK  153  A    between atoms: _419  and  _420
REMARK  154  A    between atoms: _425  and  _427
REMARK  155  A    between atoms: _427  and  _428
REMARK  156  A    between atoms: _427  and  _430
REMARK  157  A    between atoms: _430  and  _431
REMARK  158  A    between atoms: _431  and  _432
REMARK  159  A    between atoms: _432  and  _433
REMARK                            x       y       z     vdW  Elec       q    Type
REMARK                         _______ _______ _______ _____ _____    ______ ____
ROOT
ATOM      1  O   HOH     1      -2.415  -3.209  11.514  0.00  0.00    +0.000 OA
ENDROOT
TORSDOF 0
REMARK  Name = ../refined-set-2016/3n4b/3n4b_pocket.pdb
REMARK  159 active torsions:
REMARK  status: ('A' for Active; 'I' for Inactive)
REMARK    1  A    between atoms: _1  and  _3
REMARK    2  A    between atoms: _3  and  _4
REMARK    3  A    between atoms: _3  and  _6
REMARK    4  A    between atoms: _6  and  _7
REMARK    5  A    between atoms: _17  and  _19
REMARK    6  A    between atoms: _19  and  _20
REMARK    7  A    between atoms: _19  and  _22
REMARK    8  A    between atoms: _22  and  _23
REMARK    9  A    between atoms: _28  and  _29
REMARK   10  A    between atoms: _31  and  _33
REMARK   11  A    between atoms: _33  and  _34
REMARK   12  A    between atoms: _33  and  _36
REMARK   13  A    between atoms: _36  and  _37
REMARK   14  A    between atoms: _43  and  _45
REMARK   15  A    between atoms: _45  and  _46
REMARK   16  A    between atoms: _45  and  _48
REMARK   17  A    between atoms: _48  and  _49
REMARK   18  A    between atoms: _52  and  _53
REMARK   19  A    between atoms: _58  and  _60
REMARK   20  A    between atoms: _60  and  _61
REMARK   21  A    between atoms: _60  and  _63
REMARK   22  A    between atoms: _63  and  _64
REMARK   23  A    between atoms: _69  and  _71
REMARK   24  A    between atoms: _71  and  _72
REMARK   25  A    between atoms: _75  and  _77
REMARK   26  A    between atoms: _77  and  _78
REMARK   27  A    between atoms: _77  and  _80
REMARK   28  A    between atoms: _80  and  _81
REMARK   29  A    between atoms: _86  and  _88
REMARK   30  A    between atoms: _88  and  _89
REMARK   31  A    between atoms: _88  and  _91
REMARK   32  A    between atoms: _91  and  _92
REMARK   33  A    between atoms: _92  and  _93
REMARK   34  A    between atoms: _96  and  _98
REMARK   35  A    between atoms: _98  and  _99
REMARK   36  A    between atoms: _98  and  _101
REMARK   37  A    between atoms: _101  and  _102
REMARK   38  A    between atoms: _105  and  _107
REMARK   39  A    between atoms: _107  and  _108
REMARK   40  A    between atoms: _107  and  _110
REMARK   41  A    between atoms: _110  and  _111
REMARK   42  A    between atoms: _111  and  _112
REMARK   43  A    between atoms: _117  and  _119
REMARK   44  A    between atoms: _119  and  _120
REMARK   45  A    between atoms: _119  and  _122
REMARK   46  A    between atoms: _122  and  _123
REMARK   47  A    between atoms: _129  and  _131
REMARK   48  A    between atoms: _142  and  _145
REMARK   49  A    between atoms: _145  and  _146
REMARK   50  A    between atoms: _154  and  _155
REMARK   51  A    between atoms: _163  and  _165
REMARK   52  A    between atoms: _165  and  _166
REMARK   53  A    between atoms: _165  and  _168
REMARK   54  A    between atoms: _168  and  _169
REMARK   55  A    between atoms: _169  and  _170
REMARK   56  A    between atoms: _173  and  _175
REMARK   57  A    between atoms: _175  and  _176
REMARK   58  A    between atoms: _175  and  _178
REMARK   59  A    between atoms: _178  and  _179
REMARK   60  A    between atoms: _184  and  _186
REMARK   61  A    between atoms: _186  and  _187
REMARK   62  A    between atoms: _186  and  _189
REMARK   63  A    between atoms: _189  and  _190
REMARK   64  A    between atoms: _190  and  _191
REMARK   65  A    between atoms: _194  and  _196
REMARK   66  A    between atoms: _196  and  _197
REMARK   67  A    between atoms: _196  and  _199
REMARK   68  A    between atoms: _199  and  _200
REMARK   69  A    between atoms: _203  and  _205
REMARK   70  A    between atoms: _205  and  _206
REMARK   71  A    between atoms: _205  and  _208
REMARK   72  A    between atoms: _208  and  _209
REMARK   73  A    between atoms: _210  and  ZN_442
REMARK   74  A    between atoms: _214  and  _216
REMARK   75  A    between atoms: _216  and  _217
REMARK   76  A    between atoms: _216  and  _219
REMARK   77  A    between atoms: _219  and  _220
REMARK   78  A    between atoms: _223  and  _225
REMARK   79  A    between atoms: _225  and  _226
REMARK   80  A    between atoms: _225  and  _228
REMARK   81  A    between atoms: _231  and  _233
REMARK   82  A    between atoms: _233  and  _234
REMARK   83  A    between atoms: _233  and  _236
REMARK   84  A    between atoms: _236  and  _237
REMARK   85  A    between atoms: _242  and  _244
REMARK   86  A    between atoms: _244  and  _245
REMARK   87  A    between atoms: _244  and  _247
REMARK   88  A    between atoms: _247  and  _248
REMARK   89  A    between atoms: _254  and  _256
REMARK   90  A    between atoms: _256  and  _257
REMARK   91  A    between atoms: _259  and  _261
REMARK   92  A    between atoms: _261  and  _262
REMARK   93  A    between atoms: _261  and  _264
REMARK   94  A    between atoms: _267  and  _269
REMARK   95  A    between atoms: _269  and  _270
REMARK   96  A    between atoms: _269  and  _272
REMARK   97  A    between atoms: _272  and  _273
REMARK   98  A    between atoms: _273  and  _274
REMARK   99  A    between atoms: _279  and  _281
REMARK  100  A    between atoms: _281  and  _282
REMARK  101  A    between atoms: _281  and  _284
REMARK  102  A    between atoms: _284  and  _285
REMARK  103  A    between atoms: _288  and  _290
REMARK  104  A    between atoms: _290  and  _291
REMARK  105  A    between atoms: _294  and  _296
REMARK  106  A    between atoms: _296  and  _297
REMARK  107  A    between atoms: _296  and  _299
REMARK  108  A    between atoms: _302  and  _304
REMARK  109  A    between atoms: _304  and  _305
REMARK  110  A    between atoms: _304  and  _307
REMARK  111  A    between atoms: _307  and  _308
REMARK  112  A    between atoms: _311  and  _313
REMARK  113  A    between atoms: _313  and  _314
REMARK  114  A    between atoms: _316  and  _318
REMARK  115  A    between atoms: _318  and  _319
REMARK  116  A    between atoms: _318  and  _321
REMARK  117  A    between atoms: _321  and  _322
REMARK  118  A    between atoms: _324  and  _326
REMARK  119  A    between atoms: _326  and  _327
REMARK  120  A    between atoms: _326  and  _329
REMARK  121  A    between atoms: _329  and  _330
REMARK  122  A    between atoms: _333  and  _335
REMARK  123  A    between atoms: _335  and  _336
REMARK  124  A    between atoms: _335  and  _338
REMARK  125  A    between atoms: _338  and  _339
REMARK  126  A    between atoms: _342  and  _344
REMARK  127  A    between atoms: _344  and  _345
REMARK  128  A    between atoms: _344  and  _347
REMARK  129  A    between atoms: _347  and  _348
REMARK  130  A    between atoms: _352  and  _353
REMARK  131  A    between atoms: _359  and  _360
REMARK  132  A    between atoms: _365  and  _367
REMARK  133  A    between atoms: _367  and  _368
REMARK  134  A    between atoms: _367  and  _370
REMARK  135  A    between atoms: _370  and  _371
REMARK  136  A    between atoms: _374  and  _376
REMARK  137  A    between atoms: _376  and  _377
REMARK  138  A    between atoms: _376  and  _379
REMARK  139  A    between atoms: _379  and  _380
REMARK  140  A    between atoms: _383  and  _385
REMARK  141  A    between atoms: _385  and  _386
REMARK  142  A    between atoms: _385  and  _388
REMARK  143  A    between atoms: _390  and  _392
REMARK  144  A    between atoms: _392  and  _393
REMARK  145  A    between atoms: _392  and  _395
REMARK  146  A    between atoms: _398  and  _400
REMARK  147  A    between atoms: _400  and  _401
REMARK  148  A    between atoms: _400  and  _403
REMARK  149  A    between atoms: _403  and  _404
REMARK  150  A    between atoms: _414  and  _416
REMARK  151  A    between atoms: _416  and  _417
REMARK  152  A    between atoms: _416  and  _419
REMARK  153  A    between atoms: _419  and  _420
REMARK  154  A    between atoms: _425  and  _427
REMARK  155  A    between atoms: _427  and  _428
REMARK  156  A    between atoms: _427  and  _430
REMARK  157  A    between atoms: _430  and  _431
REMARK  158  A    between atoms: _431  and  _432
REMARK  159  A    between atoms: _432  and  _433
REMARK                            x       y       z     vdW  Elec       q    Type
REMARK                         _______ _______ _______ _____ _____    ______ ____
ROOT
ATOM      1  O   HOH     1      -6.980   6.021   7.030  0.00  0.00    +0.000 OA
ENDROOT
TORSDOF 0
REMARK  Name = ../refined-set-2016/3n4b/3n4b_pocket.pdb
REMARK  159 active torsions:
REMARK  status: ('A' for Active; 'I' for Inactive)
REMARK    1  A    between atoms: _1  and  _3
REMARK    2  A    between atoms: _3  and  _4
REMARK    3  A    between atoms: _3  and  _6
REMARK    4  A    between atoms: _6  and  _7
REMARK    5  A    between atoms: _17  and  _19
REMARK    6  A    between atoms: _19  and  _20
REMARK    7  A    between atoms: _19  and  _22
REMARK    8  A    between atoms: _22  and  _23
REMARK    9  A    between atoms: _28  and  _29
REMARK   10  A    between atoms: _31  and  _33
REMARK   11  A    between atoms: _33  and  _34
REMARK   12  A    between atoms: _33  and  _36
REMARK   13  A    between atoms: _36  and  _37
REMARK   14  A    between atoms: _43  and  _45
REMARK   15  A    between atoms: _45  and  _46
REMARK   16  A    between atoms: _45  and  _48
REMARK   17  A    between atoms: _48  and  _49
REMARK   18  A    between atoms: _52  and  _53
REMARK   19  A    between atoms: _58  and  _60
REMARK   20  A    between atoms: _60  and  _61
REMARK   21  A    between atoms: _60  and  _63
REMARK   22  A    between atoms: _63  and  _64
REMARK   23  A    between atoms: _69  and  _71
REMARK   24  A    between atoms: _71  and  _72
REMARK   25  A    between atoms: _75  and  _77
REMARK   26  A    between atoms: _77  and  _78
REMARK   27  A    between atoms: _77  and  _80
REMARK   28  A    between atoms: _80  and  _81
REMARK   29  A    between atoms: _86  and  _88
REMARK   30  A    between atoms: _88  and  _89
REMARK   31  A    between atoms: _88  and  _91
REMARK   32  A    between atoms: _91  and  _92
REMARK   33  A    between atoms: _92  and  _93
REMARK   34  A    between atoms: _96  and  _98
REMARK   35  A    between atoms: _98  and  _99
REMARK   36  A    between atoms: _98  and  _101
REMARK   37  A    between atoms: _101  and  _102
REMARK   38  A    between atoms: _105  and  _107
REMARK   39  A    between atoms: _107  and  _108
REMARK   40  A    between atoms: _107  and  _110
REMARK   41  A    between atoms: _110  and  _111
REMARK   42  A    between atoms: _111  and  _112
REMARK   43  A    between atoms: _117  and  _119
REMARK   44  A    between atoms: _119  and  _120
REMARK   45  A    between atoms: _119  and  _122
REMARK   46  A    between atoms: _122  and  _123
REMARK   47  A    between atoms: _129  and  _131
REMARK   48  A    between atoms: _142  and  _145
REMARK   49  A    between atoms: _145  and  _146
REMARK   50  A    between atoms: _154  and  _155
REMARK   51  A    between atoms: _163  and  _165
REMARK   52  A    between atoms: _165  and  _166
REMARK   53  A    between atoms: _165  and  _168
REMARK   54  A    between atoms: _168  and  _169
REMARK   55  A    between atoms: _169  and  _170
REMARK   56  A    between atoms: _173  and  _175
REMARK   57  A    between atoms: _175  and  _176
REMARK   58  A    between atoms: _175  and  _178
REMARK   59  A    between atoms: _178  and  _179
REMARK   60  A    between atoms: _184  and  _186
REMARK   61  A    between atoms: _186  and  _187
REMARK   62  A    between atoms: _186  and  _189
REMARK   63  A    between atoms: _189  and  _190
REMARK   64  A    between atoms: _190  and  _191
REMARK   65  A    between atoms: _194  and  _196
REMARK   66  A    between atoms: _196  and  _197
REMARK   67  A    between atoms: _196  and  _199
REMARK   68  A    between atoms: _199  and  _200
REMARK   69  A    between atoms: _203  and  _205
REMARK   70  A    between atoms: _205  and  _206
REMARK   71  A    between atoms: _205  and  _208
REMARK   72  A    between atoms: _208  and  _209
REMARK   73  A    between atoms: _210  and  ZN_442
REMARK   74  A    between atoms: _214  and  _216
REMARK   75  A    between atoms: _216  and  _217
REMARK   76  A    between atoms: _216  and  _219
REMARK   77  A    between atoms: _219  and  _220
REMARK   78  A    between atoms: _223  and  _225
REMARK   79  A    between atoms: _225  and  _226
REMARK   80  A    between atoms: _225  and  _228
REMARK   81  A    between atoms: _231  and  _233
REMARK   82  A    between atoms: _233  and  _234
REMARK   83  A    between atoms: _233  and  _236
REMARK   84  A    between atoms: _236  and  _237
REMARK   85  A    between atoms: _242  and  _244
REMARK   86  A    between atoms: _244  and  _245
REMARK   87  A    between atoms: _244  and  _247
REMARK   88  A    between atoms: _247  and  _248
REMARK   89  A    between atoms: _254  and  _256
REMARK   90  A    between atoms: _256  and  _257
REMARK   91  A    between atoms: _259  and  _261
REMARK   92  A    between atoms: _261  and  _262
REMARK   93  A    between atoms: _261  and  _264
REMARK   94  A    between atoms: _267  and  _269
REMARK   95  A    between atoms: _269  and  _270
REMARK   96  A    between atoms: _269  and  _272
REMARK   97  A    between atoms: _272  and  _273
REMARK   98  A    between atoms: _273  and  _274
REMARK   99  A    between atoms: _279  and  _281
REMARK  100  A    between atoms: _281  and  _282
REMARK  101  A    between atoms: _281  and  _284
REMARK  102  A    between atoms: _284  and  _285
REMARK  103  A    between atoms: _288  and  _290
REMARK  104  A    between atoms: _290  and  _291
REMARK  105  A    between atoms: _294  and  _296
REMARK  106  A    between atoms: _296  and  _297
REMARK  107  A    between atoms: _296  and  _299
REMARK  108  A    between atoms: _302  and  _304
REMARK  109  A    between atoms: _304  and  _305
REMARK  110  A    between atoms: _304  and  _307
REMARK  111  A    between atoms: _307  and  _308
REMARK  112  A    between atoms: _311  and  _313
REMARK  113  A    between atoms: _313  and  _314
REMARK  114  A    between atoms: _316  and  _318
REMARK  115  A    between atoms: _318  and  _319
REMARK  116  A    between atoms: _318  and  _321
REMARK  117  A    between atoms: _321  and  _322
REMARK  118  A    between atoms: _324  and  _326
REMARK  119  A    between atoms: _326  and  _327
REMARK  120  A    between atoms: _326  and  _329
REMARK  121  A    between atoms: _329  and  _330
REMARK  122  A    between atoms: _333  and  _335
REMARK  123  A    between atoms: _335  and  _336
REMARK  124  A    between atoms: _335  and  _338
REMARK  125  A    between atoms: _338  and  _339
REMARK  126  A    between atoms: _342  and  _344
REMARK  127  A    between atoms: _344  and  _345
REMARK  128  A    between atoms: _344  and  _347
REMARK  129  A    between atoms: _347  and  _348
REMARK  130  A    between atoms: _352  and  _353
REMARK  131  A    between atoms: _359  and  _360
REMARK  132  A    between atoms: _365  and  _367
REMARK  133  A    between atoms: _367  and  _368
REMARK  134  A    between atoms: _367  and  _370
REMARK  135  A    between atoms: _370  and  _371
REMARK  136  A    between atoms: _374  and  _376
REMARK  137  A    between atoms: _376  and  _377
REMARK  138  A    between atoms: _376  and  _379
REMARK  139  A    between atoms: _379  and  _380
REMARK  140  A    between atoms: _383  and  _385
REMARK  141  A    between atoms: _385  and  _386
REMARK  142  A    between atoms: _385  and  _388
REMARK  143  A    between atoms: _390  and  _392
REMARK  144  A    between atoms: _392  and  _393
REMARK  145  A    between atoms: _392  and  _395
REMARK  146  A    between atoms: _398  and  _400
REMARK  147  A    between atoms: _400  and  _401
REMARK  148  A    between atoms: _400  and  _403
REMARK  149  A    between atoms: _403  and  _404
REMARK  150  A    between atoms: _414  and  _416
REMARK  151  A    between atoms: _416  and  _417
REMARK  152  A    between atoms: _416  and  _419
REMARK  153  A    between atoms: _419  and  _420
REMARK  154  A    between atoms: _425  and  _427
REMARK  155  A    between atoms: _427  and  _428
REMARK  156  A    between atoms: _427  and  _430
REMARK  157  A    between atoms: _430  and  _431
REMARK  158  A    between atoms: _431  and  _432
REMARK  159  A    between atoms: _432  and  _433
REMARK                            x       y       z     vdW  Elec       q    Type
REMARK                         _______ _______ _______ _____ _____    ______ ____
ROOT
ATOM      1  O   HOH     1      -0.935   1.497  11.672  0.00  0.00    +0.000 OA
ENDROOT
TORSDOF 0
REMARK  Name = ../refined-set-2016/3n4b/3n4b_pocket.pdb
REMARK  159 active torsions:
REMARK  status: ('A' for Active; 'I' for Inactive)
REMARK    1  A    between atoms: _1  and  _3
REMARK    2  A    between atoms: _3  and  _4
REMARK    3  A    between atoms: _3  and  _6
REMARK    4  A    between atoms: _6  and  _7
REMARK    5  A    between atoms: _17  and  _19
REMARK    6  A    between atoms: _19  and  _20
REMARK    7  A    between atoms: _19  and  _22
REMARK    8  A    between atoms: _22  and  _23
REMARK    9  A    between atoms: _28  and  _29
REMARK   10  A    between atoms: _31  and  _33
REMARK   11  A    between atoms: _33  and  _34
REMARK   12  A    between atoms: _33  and  _36
REMARK   13  A    between atoms: _36  and  _37
REMARK   14  A    between atoms: _43  and  _45
REMARK   15  A    between atoms: _45  and  _46
REMARK   16  A    between atoms: _45  and  _48
REMARK   17  A    between atoms: _48  and  _49
REMARK   18  A    between atoms: _52  and  _53
REMARK   19  A    between atoms: _58  and  _60
REMARK   20  A    between atoms: _60  and  _61
REMARK   21  A    between atoms: _60  and  _63
REMARK   22  A    between atoms: _63  and  _64
REMARK   23  A    between atoms: _69  and  _71
REMARK   24  A    between atoms: _71  and  _72
REMARK   25  A    between atoms: _75  and  _77
REMARK   26  A    between atoms: _77  and  _78
REMARK   27  A    between atoms: _77  and  _80
REMARK   28  A    between atoms: _80  and  _81
REMARK   29  A    between atoms: _86  and  _88
REMARK   30  A    between atoms: _88  and  _89
REMARK   31  A    between atoms: _88  and  _91
REMARK   32  A    between atoms: _91  and  _92
REMARK   33  A    between atoms: _92  and  _93
REMARK   34  A    between atoms: _96  and  _98
REMARK   35  A    between atoms: _98  and  _99
REMARK   36  A    between atoms: _98  and  _101
REMARK   37  A    between atoms: _101  and  _102
REMARK   38  A    between atoms: _105  and  _107
REMARK   39  A    between atoms: _107  and  _108
REMARK   40  A    between atoms: _107  and  _110
REMARK   41  A    between atoms: _110  and  _111
REMARK   42  A    between atoms: _111  and  _112
REMARK   43  A    between atoms: _117  and  _119
REMARK   44  A    between atoms: _119  and  _120
REMARK   45  A    between atoms: _119  and  _122
REMARK   46  A    between atoms: _122  and  _123
REMARK   47  A    between atoms: _129  and  _131
REMARK   48  A    between atoms: _142  and  _145
REMARK   49  A    between atoms: _145  and  _146
REMARK   50  A    between atoms: _154  and  _155
REMARK   51  A    between atoms: _163  and  _165
REMARK   52  A    between atoms: _165  and  _166
REMARK   53  A    between atoms: _165  and  _168
REMARK   54  A    between atoms: _168  and  _169
REMARK   55  A    between atoms: _169  and  _170
REMARK   56  A    between atoms: _173  and  _175
REMARK   57  A    between atoms: _175  and  _176
REMARK   58  A    between atoms: _175  and  _178
REMARK   59  A    between atoms: _178  and  _179
REMARK   60  A    between atoms: _184  and  _186
REMARK   61  A    between atoms: _186  and  _187
REMARK   62  A    between atoms: _186  and  _189
REMARK   63  A    between atoms: _189  and  _190
REMARK   64  A    between atoms: _190  and  _191
REMARK   65  A    between atoms: _194  and  _196
REMARK   66  A    between atoms: _196  and  _197
REMARK   67  A    between atoms: _196  and  _199
REMARK   68  A    between atoms: _199  and  _200
REMARK   69  A    between atoms: _203  and  _205
REMARK   70  A    between atoms: _205  and  _206
REMARK   71  A    between atoms: _205  and  _208
REMARK   72  A    between atoms: _208  and  _209
REMARK   73  A    between atoms: _210  and  ZN_442
REMARK   74  A    between atoms: _214  and  _216
REMARK   75  A    between atoms: _216  and  _217
REMARK   76  A    between atoms: _216  and  _219
REMARK   77  A    between atoms: _219  and  _220
REMARK   78  A    between atoms: _223  and  _225
REMARK   79  A    between atoms: _225  and  _226
REMARK   80  A    between atoms: _225  and  _228
REMARK   81  A    between atoms: _231  and  _233
REMARK   82  A    between atoms: _233  and  _234
REMARK   83  A    between atoms: _233  and  _236
REMARK   84  A    between atoms: _236  and  _237
REMARK   85  A    between atoms: _242  and  _244
REMARK   86  A    between atoms: _244  and  _245
REMARK   87  A    between atoms: _244  and  _247
REMARK   88  A    between atoms: _247  and  _248
REMARK   89  A    between atoms: _254  and  _256
REMARK   90  A    between atoms: _256  and  _257
REMARK   91  A    between atoms: _259  and  _261
REMARK   92  A    between atoms: _261  and  _262
REMARK   93  A    between atoms: _261  and  _264
REMARK   94  A    between atoms: _267  and  _269
REMARK   95  A    between atoms: _269  and  _270
REMARK   96  A    between atoms: _269  and  _272
REMARK   97  A    between atoms: _272  and  _273
REMARK   98  A    between atoms: _273  and  _274
REMARK   99  A    between atoms: _279  and  _281
REMARK  100  A    between atoms: _281  and  _282
REMARK  101  A    between atoms: _281  and  _284
REMARK  102  A    between atoms: _284  and  _285
REMARK  103  A    between atoms: _288  and  _290
REMARK  104  A    between atoms: _290  and  _291
REMARK  105  A    between atoms: _294  and  _296
REMARK  106  A    between atoms: _296  and  _297
REMARK  107  A    between atoms: _296  and  _299
REMARK  108  A    between atoms: _302  and  _304
REMARK  109  A    between atoms: _304  and  _305
REMARK  110  A    between atoms: _304  and  _307
REMARK  111  A    between atoms: _307  and  _308
REMARK  112  A    between atoms: _311  and  _313
REMARK  113  A    between atoms: _313  and  _314
REMARK  114  A    between atoms: _316  and  _318
REMARK  115  A    between atoms: _318  and  _319
REMARK  116  A    between atoms: _318  and  _321
REMARK  117  A    between atoms: _321  and  _322
REMARK  118  A    between atoms: _324  and  _326
REMARK  119  A    between atoms: _326  and  _327
REMARK  120  A    between atoms: _326  and  _329
REMARK  121  A    between atoms: _329  and  _330
REMARK  122  A    between atoms: _333  and  _335
REMARK  123  A    between atoms: _335  and  _336
REMARK  124  A    between atoms: _335  and  _338
REMARK  125  A    between atoms: _338  and  _339
REMARK  126  A    between atoms: _342  and  _344
REMARK  127  A    between atoms: _344  and  _345
REMARK  128  A    between atoms: _344  and  _347
REMARK  129  A    between atoms: _347  and  _348
REMARK  130  A    between atoms: _352  and  _353
REMARK  131  A    between atoms: _359  and  _360
REMARK  132  A    between atoms: _365  and  _367
REMARK  133  A    between atoms: _367  and  _368
REMARK  134  A    between atoms: _367  and  _370
REMARK  135  A    between atoms: _370  and  _371
REMARK  136  A    between atoms: _374  and  _376
REMARK  137  A    between atoms: _376  and  _377
REMARK  138  A    between atoms: _376  and  _379
REMARK  139  A    between atoms: _379  and  _380
REMARK  140  A    between atoms: _383  and  _385
REMARK  141  A    between atoms: _385  and  _386
REMARK  142  A    between atoms: _385  and  _388
REMARK  143  A    between atoms: _390  and  _392
REMARK  144  A    between atoms: _392  and  _393
REMARK  145  A    between atoms: _392  and  _395
REMARK  146  A    between atoms: _398  and  _400
REMARK  147  A    between atoms: _400  and  _401
REMARK  148  A    between atoms: _400  and  _403
REMARK  149  A    between atoms: _403  and  _404
REMARK  150  A    between atoms: _414  and  _416
REMARK  151  A    between atoms: _416  and  _417
REMARK  152  A    between atoms: _416  and  _419
REMARK  153  A    between atoms: _419  and  _420
REMARK  154  A    between atoms: _425  and  _427
REMARK  155  A    between atoms: _427  and  _428
REMARK  156  A    between atoms: _427  and  _430
REMARK  157  A    between atoms: _430  and  _431
REMARK  158  A    between atoms: _431  and  _432
REMARK  159  A    between atoms: _432  and  _433
REMARK                            x       y       z     vdW  Elec       q    Type
REMARK                         _______ _______ _______ _____ _____    ______ ____
ROOT
ATOM      1  O   HOH     1      -0.299  14.128  16.252  0.00  0.00    +0.000 OA
ENDROOT
TORSDOF 0
REMARK  Name = ../refined-set-2016/3n4b/3n4b_pocket.pdb
REMARK  159 active torsions:
REMARK  status: ('A' for Active; 'I' for Inactive)
REMARK    1  A    between atoms: _1  and  _3
REMARK    2  A    between atoms: _3  and  _4
REMARK    3  A    between atoms: _3  and  _6
REMARK    4  A    between atoms: _6  and  _7
REMARK    5  A    between atoms: _17  and  _19
REMARK    6  A    between atoms: _19  and  _20
REMARK    7  A    between atoms: _19  and  _22
REMARK    8  A    between atoms: _22  and  _23
REMARK    9  A    between atoms: _28  and  _29
REMARK   10  A    between atoms: _31  and  _33
REMARK   11  A    between atoms: _33  and  _34
REMARK   12  A    between atoms: _33  and  _36
REMARK   13  A    between atoms: _36  and  _37
REMARK   14  A    between atoms: _43  and  _45
REMARK   15  A    between atoms: _45  and  _46
REMARK   16  A    between atoms: _45  and  _48
REMARK   17  A    between atoms: _48  and  _49
REMARK   18  A    between atoms: _52  and  _53
REMARK   19  A    between atoms: _58  and  _60
REMARK   20  A    between atoms: _60  and  _61
REMARK   21  A    between atoms: _60  and  _63
REMARK   22  A    between atoms: _63  and  _64
REMARK   23  A    between atoms: _69  and  _71
REMARK   24  A    between atoms: _71  and  _72
REMARK   25  A    between atoms: _75  and  _77
REMARK   26  A    between atoms: _77  and  _78
REMARK   27  A    between atoms: _77  and  _80
REMARK   28  A    between atoms: _80  and  _81
REMARK   29  A    between atoms: _86  and  _88
REMARK   30  A    between atoms: _88  and  _89
REMARK   31  A    between atoms: _88  and  _91
REMARK   32  A    between atoms: _91  and  _92
REMARK   33  A    between atoms: _92  and  _93
REMARK   34  A    between atoms: _96  and  _98
REMARK   35  A    between atoms: _98  and  _99
REMARK   36  A    between atoms: _98  and  _101
REMARK   37  A    between atoms: _101  and  _102
REMARK   38  A    between atoms: _105  and  _107
REMARK   39  A    between atoms: _107  and  _108
REMARK   40  A    between atoms: _107  and  _110
REMARK   41  A    between atoms: _110  and  _111
REMARK   42  A    between atoms: _111  and  _112
REMARK   43  A    between atoms: _117  and  _119
REMARK   44  A    between atoms: _119  and  _120
REMARK   45  A    between atoms: _119  and  _122
REMARK   46  A    between atoms: _122  and  _123
REMARK   47  A    between atoms: _129  and  _131
REMARK   48  A    between atoms: _142  and  _145
REMARK   49  A    between atoms: _145  and  _146
REMARK   50  A    between atoms: _154  and  _155
REMARK   51  A    between atoms: _163  and  _165
REMARK   52  A    between atoms: _165  and  _166
REMARK   53  A    between atoms: _165  and  _168
REMARK   54  A    between atoms: _168  and  _169
REMARK   55  A    between atoms: _169  and  _170
REMARK   56  A    between atoms: _173  and  _175
REMARK   57  A    between atoms: _175  and  _176
REMARK   58  A    between atoms: _175  and  _178
REMARK   59  A    between atoms: _178  and  _179
REMARK   60  A    between atoms: _184  and  _186
REMARK   61  A    between atoms: _186  and  _187
REMARK   62  A    between atoms: _186  and  _189
REMARK   63  A    between atoms: _189  and  _190
REMARK   64  A    between atoms: _190  and  _191
REMARK   65  A    between atoms: _194  and  _196
REMARK   66  A    between atoms: _196  and  _197
REMARK   67  A    between atoms: _196  and  _199
REMARK   68  A    between atoms: _199  and  _200
REMARK   69  A    between atoms: _203  and  _205
REMARK   70  A    between atoms: _205  and  _206
REMARK   71  A    between atoms: _205  and  _208
REMARK   72  A    between atoms: _208  and  _209
REMARK   73  A    between atoms: _210  and  ZN_442
REMARK   74  A    between atoms: _214  and  _216
REMARK   75  A    between atoms: _216  and  _217
REMARK   76  A    between atoms: _216  and  _219
REMARK   77  A    between atoms: _219  and  _220
REMARK   78  A    between atoms: _223  and  _225
REMARK   79  A    between atoms: _225  and  _226
REMARK   80  A    between atoms: _225  and  _228
REMARK   81  A    between atoms: _231  and  _233
REMARK   82  A    between atoms: _233  and  _234
REMARK   83  A    between atoms: _233  and  _236
REMARK   84  A    between atoms: _236  and  _237
REMARK   85  A    between atoms: _242  and  _244
REMARK   86  A    between atoms: _244  and  _245
REMARK   87  A    between atoms: _244  and  _247
REMARK   88  A    between atoms: _247  and  _248
REMARK   89  A    between atoms: _254  and  _256
REMARK   90  A    between atoms: _256  and  _257
REMARK   91  A    between atoms: _259  and  _261
REMARK   92  A    between atoms: _261  and  _262
REMARK   93  A    between atoms: _261  and  _264
REMARK   94  A    between atoms: _267  and  _269
REMARK   95  A    between atoms: _269  and  _270
REMARK   96  A    between atoms: _269  and  _272
REMARK   97  A    between atoms: _272  and  _273
REMARK   98  A    between atoms: _273  and  _274
REMARK   99  A    between atoms: _279  and  _281
REMARK  100  A    between atoms: _281  and  _282
REMARK  101  A    between atoms: _281  and  _284
REMARK  102  A    between atoms: _284  and  _285
REMARK  103  A    between atoms: _288  and  _290
REMARK  104  A    between atoms: _290  and  _291
REMARK  105  A    between atoms: _294  and  _296
REMARK  106  A    between atoms: _296  and  _297
REMARK  107  A    between atoms: _296  and  _299
REMARK  108  A    between atoms: _302  and  _304
REMARK  109  A    between atoms: _304  and  _305
REMARK  110  A    between atoms: _304  and  _307
REMARK  111  A    between atoms: _307  and  _308
REMARK  112  A    between atoms: _311  and  _313
REMARK  113  A    between atoms: _313  and  _314
REMARK  114  A    between atoms: _316  and  _318
REMARK  115  A    between atoms: _318  and  _319
REMARK  116  A    between atoms: _318  and  _321
REMARK  117  A    between atoms: _321  and  _322
REMARK  118  A    between atoms: _324  and  _326
REMARK  119  A    between atoms: _326  and  _327
REMARK  120  A    between atoms: _326  and  _329
REMARK  121  A    between atoms: _329  and  _330
REMARK  122  A    between atoms: _333  and  _335
REMARK  123  A    between atoms: _335  and  _336
REMARK  124  A    between atoms: _335  and  _338
REMARK  125  A    between atoms: _338  and  _339
REMARK  126  A    between atoms: _342  and  _344
REMARK  127  A    between atoms: _344  and  _345
REMARK  128  A    between atoms: _344  and  _347
REMARK  129  A    between atoms: _347  and  _348
REMARK  130  A    between atoms: _352  and  _353
REMARK  131  A    between atoms: _359  and  _360
REMARK  132  A    between atoms: _365  and  _367
REMARK  133  A    between atoms: _367  and  _368
REMARK  134  A    between atoms: _367  and  _370
REMARK  135  A    between atoms: _370  and  _371
REMARK  136  A    between atoms: _374  and  _376
REMARK  137  A    between atoms: _376  and  _377
REMARK  138  A    between atoms: _376  and  _379
REMARK  139  A    between atoms: _379  and  _380
REMARK  140  A    between atoms: _383  and  _385
REMARK  141  A    between atoms: _385  and  _386
REMARK  142  A    between atoms: _385  and  _388
REMARK  143  A    between atoms: _390  and  _392
REMARK  144  A    between atoms: _392  and  _393
REMARK  145  A    between atoms: _392  and  _395
REMARK  146  A    between atoms: _398  and  _400
REMARK  147  A    between atoms: _400  and  _401
REMARK  148  A    between atoms: _400  and  _403
REMARK  149  A    between atoms: _403  and  _404
REMARK  150  A    between atoms: _414  and  _416
REMARK  151  A    between atoms: _416  and  _417
REMARK  152  A    between atoms: _416  and  _419
REMARK  153  A    between atoms: _419  and  _420
REMARK  154  A    between atoms: _425  and  _427
REMARK  155  A    between atoms: _427  and  _428
REMARK  156  A    between atoms: _427  and  _430
REMARK  157  A    between atoms: _430  and  _431
REMARK  158  A    between atoms: _431  and  _432
REMARK  159  A    between atoms: _432  and  _433
REMARK                            x       y       z     vdW  Elec       q    Type
REMARK                         _______ _______ _______ _____ _____    ______ ____
ROOT
ATOM      1  O   HOH     1      -0.652   3.865  10.546  0.00  0.00    +0.000 OA
ENDROOT
TORSDOF 0
REMARK  Name = ../refined-set-2016/3n4b/3n4b_pocket.pdb
REMARK  159 active torsions:
REMARK  status: ('A' for Active; 'I' for Inactive)
REMARK    1  A    between atoms: _1  and  _3
REMARK    2  A    between atoms: _3  and  _4
REMARK    3  A    between atoms: _3  and  _6
REMARK    4  A    between atoms: _6  and  _7
REMARK    5  A    between atoms: _17  and  _19
REMARK    6  A    between atoms: _19  and  _20
REMARK    7  A    between atoms: _19  and  _22
REMARK    8  A    between atoms: _22  and  _23
REMARK    9  A    between atoms: _28  and  _29
REMARK   10  A    between atoms: _31  and  _33
REMARK   11  A    between atoms: _33  and  _34
REMARK   12  A    between atoms: _33  and  _36
REMARK   13  A    between atoms: _36  and  _37
REMARK   14  A    between atoms: _43  and  _45
REMARK   15  A    between atoms: _45  and  _46
REMARK   16  A    between atoms: _45  and  _48
REMARK   17  A    between atoms: _48  and  _49
REMARK   18  A    between atoms: _52  and  _53
REMARK   19  A    between atoms: _58  and  _60
REMARK   20  A    between atoms: _60  and  _61
REMARK   21  A    between atoms: _60  and  _63
REMARK   22  A    between atoms: _63  and  _64
REMARK   23  A    between atoms: _69  and  _71
REMARK   24  A    between atoms: _71  and  _72
REMARK   25  A    between atoms: _75  and  _77
REMARK   26  A    between atoms: _77  and  _78
REMARK   27  A    between atoms: _77  and  _80
REMARK   28  A    between atoms: _80  and  _81
REMARK   29  A    between atoms: _86  and  _88
REMARK   30  A    between atoms: _88  and  _89
REMARK   31  A    between atoms: _88  and  _91
REMARK   32  A    between atoms: _91  and  _92
REMARK   33  A    between atoms: _92  and  _93
REMARK   34  A    between atoms: _96  and  _98
REMARK   35  A    between atoms: _98  and  _99
REMARK   36  A    between atoms: _98  and  _101
REMARK   37  A    between atoms: _101  and  _102
REMARK   38  A    between atoms: _105  and  _107
REMARK   39  A    between atoms: _107  and  _108
REMARK   40  A    between atoms: _107  and  _110
REMARK   41  A    between atoms: _110  and  _111
REMARK   42  A    between atoms: _111  and  _112
REMARK   43  A    between atoms: _117  and  _119
REMARK   44  A    between atoms: _119  and  _120
REMARK   45  A    between atoms: _119  and  _122
REMARK   46  A    between atoms: _122  and  _123
REMARK   47  A    between atoms: _129  and  _131
REMARK   48  A    between atoms: _142  and  _145
REMARK   49  A    between atoms: _145  and  _146
REMARK   50  A    between atoms: _154  and  _155
REMARK   51  A    between atoms: _163  and  _165
REMARK   52  A    between atoms: _165  and  _166
REMARK   53  A    between atoms: _165  and  _168
REMARK   54  A    between atoms: _168  and  _169
REMARK   55  A    between atoms: _169  and  _170
REMARK   56  A    between atoms: _173  and  _175
REMARK   57  A    between atoms: _175  and  _176
REMARK   58  A    between atoms: _175  and  _178
REMARK   59  A    between atoms: _178  and  _179
REMARK   60  A    between atoms: _184  and  _186
REMARK   61  A    between atoms: _186  and  _187
REMARK   62  A    between atoms: _186  and  _189
REMARK   63  A    between atoms: _189  and  _190
REMARK   64  A    between atoms: _190  and  _191
REMARK   65  A    between atoms: _194  and  _196
REMARK   66  A    between atoms: _196  and  _197
REMARK   67  A    between atoms: _196  and  _199
REMARK   68  A    between atoms: _199  and  _200
REMARK   69  A    between atoms: _203  and  _205
REMARK   70  A    between atoms: _205  and  _206
REMARK   71  A    between atoms: _205  and  _208
REMARK   72  A    between atoms: _208  and  _209
REMARK   73  A    between atoms: _210  and  ZN_442
REMARK   74  A    between atoms: _214  and  _216
REMARK   75  A    between atoms: _216  and  _217
REMARK   76  A    between atoms: _216  and  _219
REMARK   77  A    between atoms: _219  and  _220
REMARK   78  A    between atoms: _223  and  _225
REMARK   79  A    between atoms: _225  and  _226
REMARK   80  A    between atoms: _225  and  _228
REMARK   81  A    between atoms: _231  and  _233
REMARK   82  A    between atoms: _233  and  _234
REMARK   83  A    between atoms: _233  and  _236
REMARK   84  A    between atoms: _236  and  _237
REMARK   85  A    between atoms: _242  and  _244
REMARK   86  A    between atoms: _244  and  _245
REMARK   87  A    between atoms: _244  and  _247
REMARK   88  A    between atoms: _247  and  _248
REMARK   89  A    between atoms: _254  and  _256
REMARK   90  A    between atoms: _256  and  _257
REMARK   91  A    between atoms: _259  and  _261
REMARK   92  A    between atoms: _261  and  _262
REMARK   93  A    between atoms: _261  and  _264
REMARK   94  A    between atoms: _267  and  _269
REMARK   95  A    between atoms: _269  and  _270
REMARK   96  A    between atoms: _269  and  _272
REMARK   97  A    between atoms: _272  and  _273
REMARK   98  A    between atoms: _273  and  _274
REMARK   99  A    between atoms: _279  and  _281
REMARK  100  A    between atoms: _281  and  _282
REMARK  101  A    between atoms: _281  and  _284
REMARK  102  A    between atoms: _284  and  _285
REMARK  103  A    between atoms: _288  and  _290
REMARK  104  A    between atoms: _290  and  _291
REMARK  105  A    between atoms: _294  and  _296
REMARK  106  A    between atoms: _296  and  _297
REMARK  107  A    between atoms: _296  and  _299
REMARK  108  A    between atoms: _302  and  _304
REMARK  109  A    between atoms: _304  and  _305
REMARK  110  A    between atoms: _304  and  _307
REMARK  111  A    between atoms: _307  and  _308
REMARK  112  A    between atoms: _311  and  _313
REMARK  113  A    between atoms: _313  and  _314
REMARK  114  A    between atoms: _316  and  _318
REMARK  115  A    between atoms: _318  and  _319
REMARK  116  A    between atoms: _318  and  _321
REMARK  117  A    between atoms: _321  and  _322
REMARK  118  A    between atoms: _324  and  _326
REMARK  119  A    between atoms: _326  and  _327
REMARK  120  A    between atoms: _326  and  _329
REMARK  121  A    between atoms: _329  and  _330
REMARK  122  A    between atoms: _333  and  _335
REMARK  123  A    between atoms: _335  and  _336
REMARK  124  A    between atoms: _335  and  _338
REMARK  125  A    between atoms: _338  and  _339
REMARK  126  A    between atoms: _342  and  _344
REMARK  127  A    between atoms: _344  and  _345
REMARK  128  A    between atoms: _344  and  _347
REMARK  129  A    between atoms: _347  and  _348
REMARK  130  A    between atoms: _352  and  _353
REMARK  131  A    between atoms: _359  and  _360
REMARK  132  A    between atoms: _365  and  _367
REMARK  133  A    between atoms: _367  and  _368
REMARK  134  A    between atoms: _367  and  _370
REMARK  135  A    between atoms: _370  and  _371
REMARK  136  A    between atoms: _374  and  _376
REMARK  137  A    between atoms: _376  and  _377
REMARK  138  A    between atoms: _376  and  _379
REMARK  139  A    between atoms: _379  and  _380
REMARK  140  A    between atoms: _383  and  _385
REMARK  141  A    between atoms: _385  and  _386
REMARK  142  A    between atoms: _385  and  _388
REMARK  143  A    between atoms: _390  and  _392
REMARK  144  A    between atoms: _392  and  _393
REMARK  145  A    between atoms: _392  and  _395
REMARK  146  A    between atoms: _398  and  _400
REMARK  147  A    between atoms: _400  and  _401
REMARK  148  A    between atoms: _400  and  _403
REMARK  149  A    between atoms: _403  and  _404
REMARK  150  A    between atoms: _414  and  _416
REMARK  151  A    between atoms: _416  and  _417
REMARK  152  A    between atoms: _416  and  _419
REMARK  153  A    between atoms: _419  and  _420
REMARK  154  A    between atoms: _425  and  _427
REMARK  155  A    between atoms: _427  and  _428
REMARK  156  A    between atoms: _427  and  _430
REMARK  157  A    between atoms: _430  and  _431
REMARK  158  A    between atoms: _431  and  _432
REMARK  159  A    between atoms: _432  and  _433
REMARK                            x       y       z     vdW  Elec       q    Type
REMARK                         _______ _______ _______ _____ _____    ______ ____
ROOT
ATOM      1  O   HOH     1      -4.256   8.730  10.177  0.00  0.00    +0.000 OA
ENDROOT
TORSDOF 0
REMARK  Name = ../refined-set-2016/3n4b/3n4b_pocket.pdb
REMARK  159 active torsions:
REMARK  status: ('A' for Active; 'I' for Inactive)
REMARK    1  A    between atoms: _1  and  _3
REMARK    2  A    between atoms: _3  and  _4
REMARK    3  A    between atoms: _3  and  _6
REMARK    4  A    between atoms: _6  and  _7
REMARK    5  A    between atoms: _17  and  _19
REMARK    6  A    between atoms: _19  and  _20
REMARK    7  A    between atoms: _19  and  _22
REMARK    8  A    between atoms: _22  and  _23
REMARK    9  A    between atoms: _28  and  _29
REMARK   10  A    between atoms: _31  and  _33
REMARK   11  A    between atoms: _33  and  _34
REMARK   12  A    between atoms: _33  and  _36
REMARK   13  A    between atoms: _36  and  _37
REMARK   14  A    between atoms: _43  and  _45
REMARK   15  A    between atoms: _45  and  _46
REMARK   16  A    between atoms: _45  and  _48
REMARK   17  A    between atoms: _48  and  _49
REMARK   18  A    between atoms: _52  and  _53
REMARK   19  A    between atoms: _58  and  _60
REMARK   20  A    between atoms: _60  and  _61
REMARK   21  A    between atoms: _60  and  _63
REMARK   22  A    between atoms: _63  and  _64
REMARK   23  A    between atoms: _69  and  _71
REMARK   24  A    between atoms: _71  and  _72
REMARK   25  A    between atoms: _75  and  _77
REMARK   26  A    between atoms: _77  and  _78
REMARK   27  A    between atoms: _77  and  _80
REMARK   28  A    between atoms: _80  and  _81
REMARK   29  A    between atoms: _86  and  _88
REMARK   30  A    between atoms: _88  and  _89
REMARK   31  A    between atoms: _88  and  _91
REMARK   32  A    between atoms: _91  and  _92
REMARK   33  A    between atoms: _92  and  _93
REMARK   34  A    between atoms: _96  and  _98
REMARK   35  A    between atoms: _98  and  _99
REMARK   36  A    between atoms: _98  and  _101
REMARK   37  A    between atoms: _101  and  _102
REMARK   38  A    between atoms: _105  and  _107
REMARK   39  A    between atoms: _107  and  _108
REMARK   40  A    between atoms: _107  and  _110
REMARK   41  A    between atoms: _110  and  _111
REMARK   42  A    between atoms: _111  and  _112
REMARK   43  A    between atoms: _117  and  _119
REMARK   44  A    between atoms: _119  and  _120
REMARK   45  A    between atoms: _119  and  _122
REMARK   46  A    between atoms: _122  and  _123
REMARK   47  A    between atoms: _129  and  _131
REMARK   48  A    between atoms: _142  and  _145
REMARK   49  A    between atoms: _145  and  _146
REMARK   50  A    between atoms: _154  and  _155
REMARK   51  A    between atoms: _163  and  _165
REMARK   52  A    between atoms: _165  and  _166
REMARK   53  A    between atoms: _165  and  _168
REMARK   54  A    between atoms: _168  and  _169
REMARK   55  A    between atoms: _169  and  _170
REMARK   56  A    between atoms: _173  and  _175
REMARK   57  A    between atoms: _175  and  _176
REMARK   58  A    between atoms: _175  and  _178
REMARK   59  A    between atoms: _178  and  _179
REMARK   60  A    between atoms: _184  and  _186
REMARK   61  A    between atoms: _186  and  _187
REMARK   62  A    between atoms: _186  and  _189
REMARK   63  A    between atoms: _189  and  _190
REMARK   64  A    between atoms: _190  and  _191
REMARK   65  A    between atoms: _194  and  _196
REMARK   66  A    between atoms: _196  and  _197
REMARK   67  A    between atoms: _196  and  _199
REMARK   68  A    between atoms: _199  and  _200
REMARK   69  A    between atoms: _203  and  _205
REMARK   70  A    between atoms: _205  and  _206
REMARK   71  A    between atoms: _205  and  _208
REMARK   72  A    between atoms: _208  and  _209
REMARK   73  A    between atoms: _210  and  ZN_442
REMARK   74  A    between atoms: _214  and  _216
REMARK   75  A    between atoms: _216  and  _217
REMARK   76  A    between atoms: _216  and  _219
REMARK   77  A    between atoms: _219  and  _220
REMARK   78  A    between atoms: _223  and  _225
REMARK   79  A    between atoms: _225  and  _226
REMARK   80  A    between atoms: _225  and  _228
REMARK   81  A    between atoms: _231  and  _233
REMARK   82  A    between atoms: _233  and  _234
REMARK   83  A    between atoms: _233  and  _236
REMARK   84  A    between atoms: _236  and  _237
REMARK   85  A    between atoms: _242  and  _244
REMARK   86  A    between atoms: _244  and  _245
REMARK   87  A    between atoms: _244  and  _247
REMARK   88  A    between atoms: _247  and  _248
REMARK   89  A    between atoms: _254  and  _256
REMARK   90  A    between atoms: _256  and  _257
REMARK   91  A    between atoms: _259  and  _261
REMARK   92  A    between atoms: _261  and  _262
REMARK   93  A    between atoms: _261  and  _264
REMARK   94  A    between atoms: _267  and  _269
REMARK   95  A    between atoms: _269  and  _270
REMARK   96  A    between atoms: _269  and  _272
REMARK   97  A    between atoms: _272  and  _273
REMARK   98  A    between atoms: _273  and  _274
REMARK   99  A    between atoms: _279  and  _281
REMARK  100  A    between atoms: _281  and  _282
REMARK  101  A    between atoms: _281  and  _284
REMARK  102  A    between atoms: _284  and  _285
REMARK  103  A    between atoms: _288  and  _290
REMARK  104  A    between atoms: _290  and  _291
REMARK  105  A    between atoms: _294  and  _296
REMARK  106  A    between atoms: _296  and  _297
REMARK  107  A    between atoms: _296  and  _299
REMARK  108  A    between atoms: _302  and  _304
REMARK  109  A    between atoms: _304  and  _305
REMARK  110  A    between atoms: _304  and  _307
REMARK  111  A    between atoms: _307  and  _308
REMARK  112  A    between atoms: _311  and  _313
REMARK  113  A    between atoms: _313  and  _314
REMARK  114  A    between atoms: _316  and  _318
REMARK  115  A    between atoms: _318  and  _319
REMARK  116  A    between atoms: _318  and  _321
REMARK  117  A    between atoms: _321  and  _322
REMARK  118  A    between atoms: _324  and  _326
REMARK  119  A    between atoms: _326  and  _327
REMARK  120  A    between atoms: _326  and  _329
REMARK  121  A    between atoms: _329  and  _330
REMARK  122  A    between atoms: _333  and  _335
REMARK  123  A    between atoms: _335  and  _336
REMARK  124  A    between atoms: _335  and  _338
REMARK  125  A    between atoms: _338  and  _339
REMARK  126  A    between atoms: _342  and  _344
REMARK  127  A    between atoms: _344  and  _345
REMARK  128  A    between atoms: _344  and  _347
REMARK  129  A    between atoms: _347  and  _348
REMARK  130  A    between atoms: _352  and  _353
REMARK  131  A    between atoms: _359  and  _360
REMARK  132  A    between atoms: _365  and  _367
REMARK  133  A    between atoms: _367  and  _368
REMARK  134  A    between atoms: _367  and  _370
REMARK  135  A    between atoms: _370  and  _371
REMARK  136  A    between atoms: _374  and  _376
REMARK  137  A    between atoms: _376  and  _377
REMARK  138  A    between atoms: _376  and  _379
REMARK  139  A    between atoms: _379  and  _380
REMARK  140  A    between atoms: _383  and  _385
REMARK  141  A    between atoms: _385  and  _386
REMARK  142  A    between atoms: _385  and  _388
REMARK  143  A    between atoms: _390  and  _392
REMARK  144  A    between atoms: _392  and  _393
REMARK  145  A    between atoms: _392  and  _395
REMARK  146  A    between atoms: _398  and  _400
REMARK  147  A    between atoms: _400  and  _401
REMARK  148  A    between atoms: _400  and  _403
REMARK  149  A    between atoms: _403  and  _404
REMARK  150  A    between atoms: _414  and  _416
REMARK  151  A    between atoms: _416  and  _417
REMARK  152  A    between atoms: _416  and  _419
REMARK  153  A    between atoms: _419  and  _420
REMARK  154  A    between atoms: _425  and  _427
REMARK  155  A    between atoms: _427  and  _428
REMARK  156  A    between atoms: _427  and  _430
REMARK  157  A    between atoms: _430  and  _431
REMARK  158  A    between atoms: _431  and  _432
REMARK  159  A    between atoms: _432  and  _433
REMARK                            x       y       z     vdW  Elec       q    Type
REMARK                         _______ _______ _______ _____ _____    ______ ____
ROOT
ATOM      1  O   HOH     1       6.609   8.455  18.105  0.00  0.00    +0.000 OA
ENDROOT
TORSDOF 0
REMARK  Name = ../refined-set-2016/3n4b/3n4b_pocket.pdb
REMARK  159 active torsions:
REMARK  status: ('A' for Active; 'I' for Inactive)
REMARK    1  A    between atoms: _1  and  _3
REMARK    2  A    between atoms: _3  and  _4
REMARK    3  A    between atoms: _3  and  _6
REMARK    4  A    between atoms: _6  and  _7
REMARK    5  A    between atoms: _17  and  _19
REMARK    6  A    between atoms: _19  and  _20
REMARK    7  A    between atoms: _19  and  _22
REMARK    8  A    between atoms: _22  and  _23
REMARK    9  A    between atoms: _28  and  _29
REMARK   10  A    between atoms: _31  and  _33
REMARK   11  A    between atoms: _33  and  _34
REMARK   12  A    between atoms: _33  and  _36
REMARK   13  A    between atoms: _36  and  _37
REMARK   14  A    between atoms: _43  and  _45
REMARK   15  A    between atoms: _45  and  _46
REMARK   16  A    between atoms: _45  and  _48
REMARK   17  A    between atoms: _48  and  _49
REMARK   18  A    between atoms: _52  and  _53
REMARK   19  A    between atoms: _58  and  _60
REMARK   20  A    between atoms: _60  and  _61
REMARK   21  A    between atoms: _60  and  _63
REMARK   22  A    between atoms: _63  and  _64
REMARK   23  A    between atoms: _69  and  _71
REMARK   24  A    between atoms: _71  and  _72
REMARK   25  A    between atoms: _75  and  _77
REMARK   26  A    between atoms: _77  and  _78
REMARK   27  A    between atoms: _77  and  _80
REMARK   28  A    between atoms: _80  and  _81
REMARK   29  A    between atoms: _86  and  _88
REMARK   30  A    between atoms: _88  and  _89
REMARK   31  A    between atoms: _88  and  _91
REMARK   32  A    between atoms: _91  and  _92
REMARK   33  A    between atoms: _92  and  _93
REMARK   34  A    between atoms: _96  and  _98
REMARK   35  A    between atoms: _98  and  _99
REMARK   36  A    between atoms: _98  and  _101
REMARK   37  A    between atoms: _101  and  _102
REMARK   38  A    between atoms: _105  and  _107
REMARK   39  A    between atoms: _107  and  _108
REMARK   40  A    between atoms: _107  and  _110
REMARK   41  A    between atoms: _110  and  _111
REMARK   42  A    between atoms: _111  and  _112
REMARK   43  A    between atoms: _117  and  _119
REMARK   44  A    between atoms: _119  and  _120
REMARK   45  A    between atoms: _119  and  _122
REMARK   46  A    between atoms: _122  and  _123
REMARK   47  A    between atoms: _129  and  _131
REMARK   48  A    between atoms: _142  and  _145
REMARK   49  A    between atoms: _145  and  _146
REMARK   50  A    between atoms: _154  and  _155
REMARK   51  A    between atoms: _163  and  _165
REMARK   52  A    between atoms: _165  and  _166
REMARK   53  A    between atoms: _165  and  _168
REMARK   54  A    between atoms: _168  and  _169
REMARK   55  A    between atoms: _169  and  _170
REMARK   56  A    between atoms: _173  and  _175
REMARK   57  A    between atoms: _175  and  _176
REMARK   58  A    between atoms: _175  and  _178
REMARK   59  A    between atoms: _178  and  _179
REMARK   60  A    between atoms: _184  and  _186
REMARK   61  A    between atoms: _186  and  _187
REMARK   62  A    between atoms: _186  and  _189
REMARK   63  A    between atoms: _189  and  _190
REMARK   64  A    between atoms: _190  and  _191
REMARK   65  A    between atoms: _194  and  _196
REMARK   66  A    between atoms: _196  and  _197
REMARK   67  A    between atoms: _196  and  _199
REMARK   68  A    between atoms: _199  and  _200
REMARK   69  A    between atoms: _203  and  _205
REMARK   70  A    between atoms: _205  and  _206
REMARK   71  A    between atoms: _205  and  _208
REMARK   72  A    between atoms: _208  and  _209
REMARK   73  A    between atoms: _210  and  ZN_442
REMARK   74  A    between atoms: _214  and  _216
REMARK   75  A    between atoms: _216  and  _217
REMARK   76  A    between atoms: _216  and  _219
REMARK   77  A    between atoms: _219  and  _220
REMARK   78  A    between atoms: _223  and  _225
REMARK   79  A    between atoms: _225  and  _226
REMARK   80  A    between atoms: _225  and  _228
REMARK   81  A    between atoms: _231  and  _233
REMARK   82  A    between atoms: _233  and  _234
REMARK   83  A    between atoms: _233  and  _236
REMARK   84  A    between atoms: _236  and  _237
REMARK   85  A    between atoms: _242  and  _244
REMARK   86  A    between atoms: _244  and  _245
REMARK   87  A    between atoms: _244  and  _247
REMARK   88  A    between atoms: _247  and  _248
REMARK   89  A    between atoms: _254  and  _256
REMARK   90  A    between atoms: _256  and  _257
REMARK   91  A    between atoms: _259  and  _261
REMARK   92  A    between atoms: _261  and  _262
REMARK   93  A    between atoms: _261  and  _264
REMARK   94  A    between atoms: _267  and  _269
REMARK   95  A    between atoms: _269  and  _270
REMARK   96  A    between atoms: _269  and  _272
REMARK   97  A    between atoms: _272  and  _273
REMARK   98  A    between atoms: _273  and  _274
REMARK   99  A    between atoms: _279  and  _281
REMARK  100  A    between atoms: _281  and  _282
REMARK  101  A    between atoms: _281  and  _284
REMARK  102  A    between atoms: _284  and  _285
REMARK  103  A    between atoms: _288  and  _290
REMARK  104  A    between atoms: _290  and  _291
REMARK  105  A    between atoms: _294  and  _296
REMARK  106  A    between atoms: _296  and  _297
REMARK  107  A    between atoms: _296  and  _299
REMARK  108  A    between atoms: _302  and  _304
REMARK  109  A    between atoms: _304  and  _305
REMARK  110  A    between atoms: _304  and  _307
REMARK  111  A    between atoms: _307  and  _308
REMARK  112  A    between atoms: _311  and  _313
REMARK  113  A    between atoms: _313  and  _314
REMARK  114  A    between atoms: _316  and  _318
REMARK  115  A    between atoms: _318  and  _319
REMARK  116  A    between atoms: _318  and  _321
REMARK  117  A    between atoms: _321  and  _322
REMARK  118  A    between atoms: _324  and  _326
REMARK  119  A    between atoms: _326  and  _327
REMARK  120  A    between atoms: _326  and  _329
REMARK  121  A    between atoms: _329  and  _330
REMARK  122  A    between atoms: _333  and  _335
REMARK  123  A    between atoms: _335  and  _336
REMARK  124  A    between atoms: _335  and  _338
REMARK  125  A    between atoms: _338  and  _339
REMARK  126  A    between atoms: _342  and  _344
REMARK  127  A    between atoms: _344  and  _345
REMARK  128  A    between atoms: _344  and  _347
REMARK  129  A    between atoms: _347  and  _348
REMARK  130  A    between atoms: _352  and  _353
REMARK  131  A    between atoms: _359  and  _360
REMARK  132  A    between atoms: _365  and  _367
REMARK  133  A    between atoms: _367  and  _368
REMARK  134  A    between atoms: _367  and  _370
REMARK  135  A    between atoms: _370  and  _371
REMARK  136  A    between atoms: _374  and  _376
REMARK  137  A    between atoms: _376  and  _377
REMARK  138  A    between atoms: _376  and  _379
REMARK  139  A    between atoms: _379  and  _380
REMARK  140  A    between atoms: _383  and  _385
REMARK  141  A    between atoms: _385  and  _386
REMARK  142  A    between atoms: _385  and  _388
REMARK  143  A    between atoms: _390  and  _392
REMARK  144  A    between atoms: _392  and  _393
REMARK  145  A    between atoms: _392  and  _395
REMARK  146  A    between atoms: _398  and  _400
REMARK  147  A    between atoms: _400  and  _401
REMARK  148  A    between atoms: _400  and  _403
REMARK  149  A    between atoms: _403  and  _404
REMARK  150  A    between atoms: _414  and  _416
REMARK  151  A    between atoms: _416  and  _417
REMARK  152  A    between atoms: _416  and  _419
REMARK  153  A    between atoms: _419  and  _420
REMARK  154  A    between atoms: _425  and  _427
REMARK  155  A    between atoms: _427  and  _428
REMARK  156  A    between atoms: _427  and  _430
REMARK  157  A    between atoms: _430  and  _431
REMARK  158  A    between atoms: _431  and  _432
REMARK  159  A    between atoms: _432  and  _433
REMARK                            x       y       z     vdW  Elec       q    Type
REMARK                         _______ _______ _______ _____ _____    ______ ____
ROOT
ATOM      1  O   HOH     1      -3.744   7.311   6.004  0.00  0.00    +0.000 OA
ENDROOT
TORSDOF 0
REMARK  Name = ../refined-set-2016/3n4b/3n4b_pocket.pdb
REMARK  159 active torsions:
REMARK  status: ('A' for Active; 'I' for Inactive)
REMARK    1  A    between atoms: _1  and  _3
REMARK    2  A    between atoms: _3  and  _4
REMARK    3  A    between atoms: _3  and  _6
REMARK    4  A    between atoms: _6  and  _7
REMARK    5  A    between atoms: _17  and  _19
REMARK    6  A    between atoms: _19  and  _20
REMARK    7  A    between atoms: _19  and  _22
REMARK    8  A    between atoms: _22  and  _23
REMARK    9  A    between atoms: _28  and  _29
REMARK   10  A    between atoms: _31  and  _33
REMARK   11  A    between atoms: _33  and  _34
REMARK   12  A    between atoms: _33  and  _36
REMARK   13  A    between atoms: _36  and  _37
REMARK   14  A    between atoms: _43  and  _45
REMARK   15  A    between atoms: _45  and  _46
REMARK   16  A    between atoms: _45  and  _48
REMARK   17  A    between atoms: _48  and  _49
REMARK   18  A    between atoms: _52  and  _53
REMARK   19  A    between atoms: _58  and  _60
REMARK   20  A    between atoms: _60  and  _61
REMARK   21  A    between atoms: _60  and  _63
REMARK   22  A    between atoms: _63  and  _64
REMARK   23  A    between atoms: _69  and  _71
REMARK   24  A    between atoms: _71  and  _72
REMARK   25  A    between atoms: _75  and  _77
REMARK   26  A    between atoms: _77  and  _78
REMARK   27  A    between atoms: _77  and  _80
REMARK   28  A    between atoms: _80  and  _81
REMARK   29  A    between atoms: _86  and  _88
REMARK   30  A    between atoms: _88  and  _89
REMARK   31  A    between atoms: _88  and  _91
REMARK   32  A    between atoms: _91  and  _92
REMARK   33  A    between atoms: _92  and  _93
REMARK   34  A    between atoms: _96  and  _98
REMARK   35  A    between atoms: _98  and  _99
REMARK   36  A    between atoms: _98  and  _101
REMARK   37  A    between atoms: _101  and  _102
REMARK   38  A    between atoms: _105  and  _107
REMARK   39  A    between atoms: _107  and  _108
REMARK   40  A    between atoms: _107  and  _110
REMARK   41  A    between atoms: _110  and  _111
REMARK   42  A    between atoms: _111  and  _112
REMARK   43  A    between atoms: _117  and  _119
REMARK   44  A    between atoms: _119  and  _120
REMARK   45  A    between atoms: _119  and  _122
REMARK   46  A    between atoms: _122  and  _123
REMARK   47  A    between atoms: _129  and  _131
REMARK   48  A    between atoms: _142  and  _145
REMARK   49  A    between atoms: _145  and  _146
REMARK   50  A    between atoms: _154  and  _155
REMARK   51  A    between atoms: _163  and  _165
REMARK   52  A    between atoms: _165  and  _166
REMARK   53  A    between atoms: _165  and  _168
REMARK   54  A    between atoms: _168  and  _169
REMARK   55  A    between atoms: _169  and  _170
REMARK   56  A    between atoms: _173  and  _175
REMARK   57  A    between atoms: _175  and  _176
REMARK   58  A    between atoms: _175  and  _178
REMARK   59  A    between atoms: _178  and  _179
REMARK   60  A    between atoms: _184  and  _186
REMARK   61  A    between atoms: _186  and  _187
REMARK   62  A    between atoms: _186  and  _189
REMARK   63  A    between atoms: _189  and  _190
REMARK   64  A    between atoms: _190  and  _191
REMARK   65  A    between atoms: _194  and  _196
REMARK   66  A    between atoms: _196  and  _197
REMARK   67  A    between atoms: _196  and  _199
REMARK   68  A    between atoms: _199  and  _200
REMARK   69  A    between atoms: _203  and  _205
REMARK   70  A    between atoms: _205  and  _206
REMARK   71  A    between atoms: _205  and  _208
REMARK   72  A    between atoms: _208  and  _209
REMARK   73  A    between atoms: _210  and  ZN_442
REMARK   74  A    between atoms: _214  and  _216
REMARK   75  A    between atoms: _216  and  _217
REMARK   76  A    between atoms: _216  and  _219
REMARK   77  A    between atoms: _219  and  _220
REMARK   78  A    between atoms: _223  and  _225
REMARK   79  A    between atoms: _225  and  _226
REMARK   80  A    between atoms: _225  and  _228
REMARK   81  A    between atoms: _231  and  _233
REMARK   82  A    between atoms: _233  and  _234
REMARK   83  A    between atoms: _233  and  _236
REMARK   84  A    between atoms: _236  and  _237
REMARK   85  A    between atoms: _242  and  _244
REMARK   86  A    between atoms: _244  and  _245
REMARK   87  A    between atoms: _244  and  _247
REMARK   88  A    between atoms: _247  and  _248
REMARK   89  A    between atoms: _254  and  _256
REMARK   90  A    between atoms: _256  and  _257
REMARK   91  A    between atoms: _259  and  _261
REMARK   92  A    between atoms: _261  and  _262
REMARK   93  A    between atoms: _261  and  _264
REMARK   94  A    between atoms: _267  and  _269
REMARK   95  A    between atoms: _269  and  _270
REMARK   96  A    between atoms: _269  and  _272
REMARK   97  A    between atoms: _272  and  _273
REMARK   98  A    between atoms: _273  and  _274
REMARK   99  A    between atoms: _279  and  _281
REMARK  100  A    between atoms: _281  and  _282
REMARK  101  A    between atoms: _281  and  _284
REMARK  102  A    between atoms: _284  and  _285
REMARK  103  A    between atoms: _288  and  _290
REMARK  104  A    between atoms: _290  and  _291
REMARK  105  A    between atoms: _294  and  _296
REMARK  106  A    between atoms: _296  and  _297
REMARK  107  A    between atoms: _296  and  _299
REMARK  108  A    between atoms: _302  and  _304
REMARK  109  A    between atoms: _304  and  _305
REMARK  110  A    between atoms: _304  and  _307
REMARK  111  A    between atoms: _307  and  _308
REMARK  112  A    between atoms: _311  and  _313
REMARK  113  A    between atoms: _313  and  _314
REMARK  114  A    between atoms: _316  and  _318
REMARK  115  A    between atoms: _318  and  _319
REMARK  116  A    between atoms: _318  and  _321
REMARK  117  A    between atoms: _321  and  _322
REMARK  118  A    between atoms: _324  and  _326
REMARK  119  A    between atoms: _326  and  _327
REMARK  120  A    between atoms: _326  and  _329
REMARK  121  A    between atoms: _329  and  _330
REMARK  122  A    between atoms: _333  and  _335
REMARK  123  A    between atoms: _335  and  _336
REMARK  124  A    between atoms: _335  and  _338
REMARK  125  A    between atoms: _338  and  _339
REMARK  126  A    between atoms: _342  and  _344
REMARK  127  A    between atoms: _344  and  _345
REMARK  128  A    between atoms: _344  and  _347
REMARK  129  A    between atoms: _347  and  _348
REMARK  130  A    between atoms: _352  and  _353
REMARK  131  A    between atoms: _359  and  _360
REMARK  132  A    between atoms: _365  and  _367
REMARK  133  A    between atoms: _367  and  _368
REMARK  134  A    between atoms: _367  and  _370
REMARK  135  A    between atoms: _370  and  _371
REMARK  136  A    between atoms: _374  and  _376
REMARK  137  A    between atoms: _376  and  _377
REMARK  138  A    between atoms: _376  and  _379
REMARK  139  A    between atoms: _379  and  _380
REMARK  140  A    between atoms: _383  and  _385
REMARK  141  A    between atoms: _385  and  _386
REMARK  142  A    between atoms: _385  and  _388
REMARK  143  A    between atoms: _390  and  _392
REMARK  144  A    between atoms: _392  and  _393
REMARK  145  A    between atoms: _392  and  _395
REMARK  146  A    between atoms: _398  and  _400
REMARK  147  A    between atoms: _400  and  _401
REMARK  148  A    between atoms: _400  and  _403
REMARK  149  A    between atoms: _403  and  _404
REMARK  150  A    between atoms: _414  and  _416
REMARK  151  A    between atoms: _416  and  _417
REMARK  152  A    between atoms: _416  and  _419
REMARK  153  A    between atoms: _419  and  _420
REMARK  154  A    between atoms: _425  and  _427
REMARK  155  A    between atoms: _427  and  _428
REMARK  156  A    between atoms: _427  and  _430
REMARK  157  A    between atoms: _430  and  _431
REMARK  158  A    between atoms: _431  and  _432
REMARK  159  A    between atoms: _432  and  _433
REMARK                            x       y       z     vdW  Elec       q    Type
REMARK                         _______ _______ _______ _____ _____    ______ ____
ROOT
ATOM      1  O   HOH     1      -3.126   5.054   9.461  0.00  0.00    +0.000 OA
ENDROOT
TORSDOF 0
REMARK  Name = ../refined-set-2016/3n4b/3n4b_pocket.pdb
REMARK  159 active torsions:
REMARK  status: ('A' for Active; 'I' for Inactive)
REMARK    1  A    between atoms: _1  and  _3
REMARK    2  A    between atoms: _3  and  _4
REMARK    3  A    between atoms: _3  and  _6
REMARK    4  A    between atoms: _6  and  _7
REMARK    5  A    between atoms: _17  and  _19
REMARK    6  A    between atoms: _19  and  _20
REMARK    7  A    between atoms: _19  and  _22
REMARK    8  A    between atoms: _22  and  _23
REMARK    9  A    between atoms: _28  and  _29
REMARK   10  A    between atoms: _31  and  _33
REMARK   11  A    between atoms: _33  and  _34
REMARK   12  A    between atoms: _33  and  _36
REMARK   13  A    between atoms: _36  and  _37
REMARK   14  A    between atoms: _43  and  _45
REMARK   15  A    between atoms: _45  and  _46
REMARK   16  A    between atoms: _45  and  _48
REMARK   17  A    between atoms: _48  and  _49
REMARK   18  A    between atoms: _52  and  _53
REMARK   19  A    between atoms: _58  and  _60
REMARK   20  A    between atoms: _60  and  _61
REMARK   21  A    between atoms: _60  and  _63
REMARK   22  A    between atoms: _63  and  _64
REMARK   23  A    between atoms: _69  and  _71
REMARK   24  A    between atoms: _71  and  _72
REMARK   25  A    between atoms: _75  and  _77
REMARK   26  A    between atoms: _77  and  _78
REMARK   27  A    between atoms: _77  and  _80
REMARK   28  A    between atoms: _80  and  _81
REMARK   29  A    between atoms: _86  and  _88
REMARK   30  A    between atoms: _88  and  _89
REMARK   31  A    between atoms: _88  and  _91
REMARK   32  A    between atoms: _91  and  _92
REMARK   33  A    between atoms: _92  and  _93
REMARK   34  A    between atoms: _96  and  _98
REMARK   35  A    between atoms: _98  and  _99
REMARK   36  A    between atoms: _98  and  _101
REMARK   37  A    between atoms: _101  and  _102
REMARK   38  A    between atoms: _105  and  _107
REMARK   39  A    between atoms: _107  and  _108
REMARK   40  A    between atoms: _107  and  _110
REMARK   41  A    between atoms: _110  and  _111
REMARK   42  A    between atoms: _111  and  _112
REMARK   43  A    between atoms: _117  and  _119
REMARK   44  A    between atoms: _119  and  _120
REMARK   45  A    between atoms: _119  and  _122
REMARK   46  A    between atoms: _122  and  _123
REMARK   47  A    between atoms: _129  and  _131
REMARK   48  A    between atoms: _142  and  _145
REMARK   49  A    between atoms: _145  and  _146
REMARK   50  A    between atoms: _154  and  _155
REMARK   51  A    between atoms: _163  and  _165
REMARK   52  A    between atoms: _165  and  _166
REMARK   53  A    between atoms: _165  and  _168
REMARK   54  A    between atoms: _168  and  _169
REMARK   55  A    between atoms: _169  and  _170
REMARK   56  A    between atoms: _173  and  _175
REMARK   57  A    between atoms: _175  and  _176
REMARK   58  A    between atoms: _175  and  _178
REMARK   59  A    between atoms: _178  and  _179
REMARK   60  A    between atoms: _184  and  _186
REMARK   61  A    between atoms: _186  and  _187
REMARK   62  A    between atoms: _186  and  _189
REMARK   63  A    between atoms: _189  and  _190
REMARK   64  A    between atoms: _190  and  _191
REMARK   65  A    between atoms: _194  and  _196
REMARK   66  A    between atoms: _196  and  _197
REMARK   67  A    between atoms: _196  and  _199
REMARK   68  A    between atoms: _199  and  _200
REMARK   69  A    between atoms: _203  and  _205
REMARK   70  A    between atoms: _205  and  _206
REMARK   71  A    between atoms: _205  and  _208
REMARK   72  A    between atoms: _208  and  _209
REMARK   73  A    between atoms: _210  and  ZN_442
REMARK   74  A    between atoms: _214  and  _216
REMARK   75  A    between atoms: _216  and  _217
REMARK   76  A    between atoms: _216  and  _219
REMARK   77  A    between atoms: _219  and  _220
REMARK   78  A    between atoms: _223  and  _225
REMARK   79  A    between atoms: _225  and  _226
REMARK   80  A    between atoms: _225  and  _228
REMARK   81  A    between atoms: _231  and  _233
REMARK   82  A    between atoms: _233  and  _234
REMARK   83  A    between atoms: _233  and  _236
REMARK   84  A    between atoms: _236  and  _237
REMARK   85  A    between atoms: _242  and  _244
REMARK   86  A    between atoms: _244  and  _245
REMARK   87  A    between atoms: _244  and  _247
REMARK   88  A    between atoms: _247  and  _248
REMARK   89  A    between atoms: _254  and  _256
REMARK   90  A    between atoms: _256  and  _257
REMARK   91  A    between atoms: _259  and  _261
REMARK   92  A    between atoms: _261  and  _262
REMARK   93  A    between atoms: _261  and  _264
REMARK   94  A    between atoms: _267  and  _269
REMARK   95  A    between atoms: _269  and  _270
REMARK   96  A    between atoms: _269  and  _272
REMARK   97  A    between atoms: _272  and  _273
REMARK   98  A    between atoms: _273  and  _274
REMARK   99  A    between atoms: _279  and  _281
REMARK  100  A    between atoms: _281  and  _282
REMARK  101  A    between atoms: _281  and  _284
REMARK  102  A    between atoms: _284  and  _285
REMARK  103  A    between atoms: _288  and  _290
REMARK  104  A    between atoms: _290  and  _291
REMARK  105  A    between atoms: _294  and  _296
REMARK  106  A    between atoms: _296  and  _297
REMARK  107  A    between atoms: _296  and  _299
REMARK  108  A    between atoms: _302  and  _304
REMARK  109  A    between atoms: _304  and  _305
REMARK  110  A    between atoms: _304  and  _307
REMARK  111  A    between atoms: _307  and  _308
REMARK  112  A    between atoms: _311  and  _313
REMARK  113  A    between atoms: _313  and  _314
REMARK  114  A    between atoms: _316  and  _318
REMARK  115  A    between atoms: _318  and  _319
REMARK  116  A    between atoms: _318  and  _321
REMARK  117  A    between atoms: _321  and  _322
REMARK  118  A    between atoms: _324  and  _326
REMARK  119  A    between atoms: _326  and  _327
REMARK  120  A    between atoms: _326  and  _329
REMARK  121  A    between atoms: _329  and  _330
REMARK  122  A    between atoms: _333  and  _335
REMARK  123  A    between atoms: _335  and  _336
REMARK  124  A    between atoms: _335  and  _338
REMARK  125  A    between atoms: _338  and  _339
REMARK  126  A    between atoms: _342  and  _344
REMARK  127  A    between atoms: _344  and  _345
REMARK  128  A    between atoms: _344  and  _347
REMARK  129  A    between atoms: _347  and  _348
REMARK  130  A    between atoms: _352  and  _353
REMARK  131  A    between atoms: _359  and  _360
REMARK  132  A    between atoms: _365  and  _367
REMARK  133  A    between atoms: _367  and  _368
REMARK  134  A    between atoms: _367  and  _370
REMARK  135  A    between atoms: _370  and  _371
REMARK  136  A    between atoms: _374  and  _376
REMARK  137  A    between atoms: _376  and  _377
REMARK  138  A    between atoms: _376  and  _379
REMARK  139  A    between atoms: _379  and  _380
REMARK  140  A    between atoms: _383  and  _385
REMARK  141  A    between atoms: _385  and  _386
REMARK  142  A    between atoms: _385  and  _388
REMARK  143  A    between atoms: _390  and  _392
REMARK  144  A    between atoms: _392  and  _393
REMARK  145  A    between atoms: _392  and  _395
REMARK  146  A    between atoms: _398  and  _400
REMARK  147  A    between atoms: _400  and  _401
REMARK  148  A    between atoms: _400  and  _403
REMARK  149  A    between atoms: _403  and  _404
REMARK  150  A    between atoms: _414  and  _416
REMARK  151  A    between atoms: _416  and  _417
REMARK  152  A    between atoms: _416  and  _419
REMARK  153  A    between atoms: _419  and  _420
REMARK  154  A    between atoms: _425  and  _427
REMARK  155  A    between atoms: _427  and  _428
REMARK  156  A    between atoms: _427  and  _430
REMARK  157  A    between atoms: _430  and  _431
REMARK  158  A    between atoms: _431  and  _432
REMARK  159  A    between atoms: _432  and  _433
REMARK                            x       y       z     vdW  Elec       q    Type
REMARK                         _______ _______ _______ _____ _____    ______ ____
ROOT
ATOM      1  O   HOH     1      -1.758  16.618  12.529  0.00  0.00    +0.000 OA
ENDROOT
TORSDOF 0
