REMARK  Name = ../refined-set-2016/4o07/4o07_pocket.pdb
REMARK  249 active torsions:
REMARK  status: ('A' for Active; 'I' for Inactive)
REMARK    1  A    between atoms: _1  and  _3
REMARK    2  A    between atoms: _3  and  _4
REMARK    3  A    between atoms: _3  and  _6
REMARK    4  A    between atoms: _6  and  _7
REMARK    5  A    between atoms: _13  and  _15
REMARK    6  A    between atoms: _15  and  _16
REMARK    7  A    between atoms: _15  and  _18
REMARK    8  A    between atoms: _18  and  _19
REMARK    9  A    between atoms: _19  and  _20
REMARK   10  A    between atoms: _25  and  _27
REMARK   11  A    between atoms: _27  and  _28
REMARK   12  A    between atoms: _27  and  _30
REMARK   13  A    between atoms: _30  and  _31
REMARK   14  A    between atoms: _34  and  _36
REMARK   15  A    between atoms: _36  and  _37
REMARK   16  A    between atoms: _36  and  _39
REMARK   17  A    between atoms: _39  and  _40
REMARK   18  A    between atoms: _40  and  _41
REMARK   19  A    between atoms: _44  and  _46
REMARK   20  A    between atoms: _46  and  _47
REMARK   21  A    between atoms: _46  and  _49
REMARK   22  A    between atoms: _49  and  _50
REMARK   23  A    between atoms: _53  and  _55
REMARK   24  A    between atoms: _55  and  _56
REMARK   25  A    between atoms: _55  and  _58
REMARK   26  A    between atoms: _58  and  _59
REMARK   27  A    between atoms: _62  and  _64
REMARK   28  A    between atoms: _64  and  _65
REMARK   29  A    between atoms: _64  and  _67
REMARK   30  A    between atoms: _67  and  _68
REMARK   31  A    between atoms: _70  and  _72
REMARK   32  A    between atoms: _72  and  _73
REMARK   33  A    between atoms: _72  and  _75
REMARK   34  A    between atoms: _75  and  _76
REMARK   35  A    between atoms: _81  and  _83
REMARK   36  A    between atoms: _83  and  _84
REMARK   37  A    between atoms: _83  and  _86
REMARK   38  A    between atoms: _86  and  _87
REMARK   39  A    between atoms: _89  and  _91
REMARK   40  A    between atoms: _91  and  _92
REMARK   41  A    between atoms: _91  and  _94
REMARK   42  A    between atoms: _94  and  _95
REMARK   43  A    between atoms: _97  and  _99
REMARK   44  A    between atoms: _99  and  _100
REMARK   45  A    between atoms: _99  and  _102
REMARK   46  A    between atoms: _102  and  _103
REMARK   47  A    between atoms: _106  and  _108
REMARK   48  A    between atoms: _108  and  _109
REMARK   49  A    between atoms: _112  and  _114
REMARK   50  A    between atoms: _114  and  _115
REMARK   51  A    between atoms: _114  and  _117
REMARK   52  A    between atoms: _117  and  _118
REMARK   53  A    between atoms: _121  and  _123
REMARK   54  A    between atoms: _123  and  _124
REMARK   55  A    between atoms: _123  and  _126
REMARK   56  A    between atoms: _126  and  _127
REMARK   57  A    between atoms: _130  and  _132
REMARK   58  A    between atoms: _132  and  _133
REMARK   59  A    between atoms: _132  and  _135
REMARK   60  A    between atoms: _135  and  _136
REMARK   61  A    between atoms: _136  and  _137
REMARK   62  A    between atoms: _137  and  _138
REMARK   63  A    between atoms: _138  and  _139
REMARK   64  A    between atoms: _143  and  _145
REMARK   65  A    between atoms: _145  and  _146
REMARK   66  A    between atoms: _145  and  _148
REMARK   67  A    between atoms: _148  and  _149
REMARK   68  A    between atoms: _152  and  _154
REMARK   69  A    between atoms: _154  and  _155
REMARK   70  A    between atoms: _154  and  _157
REMARK   71  A    between atoms: _157  and  _158
REMARK   72  A    between atoms: _161  and  _163
REMARK   73  A    between atoms: _163  and  _164
REMARK   74  A    between atoms: _163  and  _166
REMARK   75  A    between atoms: _169  and  _171
REMARK   76  A    between atoms: _171  and  _172
REMARK   77  A    between atoms: _171  and  _174
REMARK   78  A    between atoms: _174  and  _175
REMARK   79  A    between atoms: _178  and  _180
REMARK   80  A    between atoms: _180  and  _181
REMARK   81  A    between atoms: _180  and  _183
REMARK   82  A    between atoms: _183  and  _184
REMARK   83  A    between atoms: _187  and  _189
REMARK   84  A    between atoms: _189  and  _190
REMARK   85  A    between atoms: _192  and  _194
REMARK   86  A    between atoms: _194  and  _195
REMARK   87  A    between atoms: _194  and  _197
REMARK   88  A    between atoms: _197  and  _198
REMARK   89  A    between atoms: _201  and  _203
REMARK   90  A    between atoms: _203  and  _204
REMARK   91  A    between atoms: _206  and  _208
REMARK   92  A    between atoms: _208  and  _209
REMARK   93  A    between atoms: _208  and  _211
REMARK   94  A    between atoms: _211  and  _212
REMARK   95  A    between atoms: _212  and  _213
REMARK   96  A    between atoms: _215  and  _217
REMARK   97  A    between atoms: _217  and  _218
REMARK   98  A    between atoms: _217  and  _220
REMARK   99  A    between atoms: _220  and  _221
REMARK  100  A    between atoms: _224  and  _226
REMARK  101  A    between atoms: _226  and  _227
REMARK  102  A    between atoms: _226  and  _229
REMARK  103  A    between atoms: _229  and  _230
REMARK  104  A    between atoms: _230  and  _231
REMARK  105  A    between atoms: _231  and  _232
REMARK  106  A    between atoms: _232  and  _233
REMARK  107  A    between atoms: _237  and  _239
REMARK  108  A    between atoms: _239  and  _240
REMARK  109  A    between atoms: _243  and  _245
REMARK  110  A    between atoms: _245  and  _246
REMARK  111  A    between atoms: _245  and  _248
REMARK  112  A    between atoms: _248  and  _249
REMARK  113  A    between atoms: _252  and  _254
REMARK  114  A    between atoms: _254  and  _255
REMARK  115  A    between atoms: _254  and  _257
REMARK  116  A    between atoms: _257  and  _258
REMARK  117  A    between atoms: _261  and  _263
REMARK  118  A    between atoms: _263  and  _264
REMARK  119  A    between atoms: _263  and  _266
REMARK  120  A    between atoms: _266  and  _267
REMARK  121  A    between atoms: _270  and  _272
REMARK  122  A    between atoms: _272  and  _273
REMARK  123  A    between atoms: _272  and  _275
REMARK  124  A    between atoms: _275  and  _276
REMARK  125  A    between atoms: _281  and  _283
REMARK  126  A    between atoms: _283  and  _284
REMARK  127  A    between atoms: _283  and  _286
REMARK  128  A    between atoms: _286  and  _287
REMARK  129  A    between atoms: _292  and  _294
REMARK  130  A    between atoms: _294  and  _295
REMARK  131  A    between atoms: _294  and  _297
REMARK  132  A    between atoms: _297  and  _298
REMARK  133  A    between atoms: _301  and  _303
REMARK  134  A    between atoms: _303  and  _304
REMARK  135  A    between atoms: _306  and  _308
REMARK  136  A    between atoms: _308  and  _309
REMARK  137  A    between atoms: _308  and  _311
REMARK  138  A    between atoms: _311  and  _312
REMARK  139  A    between atoms: _315  and  _317
REMARK  140  A    between atoms: _317  and  _318
REMARK  141  A    between atoms: _317  and  _320
REMARK  142  A    between atoms: _320  and  _321
REMARK  143  A    between atoms: _324  and  _326
REMARK  144  A    between atoms: _326  and  _327
REMARK  145  A    between atoms: _330  and  _332
REMARK  146  A    between atoms: _332  and  _333
REMARK  147  A    between atoms: _332  and  _335
REMARK  148  A    between atoms: _335  and  _336
REMARK  149  A    between atoms: _336  and  _337
REMARK  150  A    between atoms: _337  and  _338
REMARK  151  A    between atoms: _338  and  _339
REMARK  152  A    between atoms: _343  and  _345
REMARK  153  A    between atoms: _345  and  _346
REMARK  154  A    between atoms: _348  and  _350
REMARK  155  A    between atoms: _350  and  _351
REMARK  156  A    between atoms: _350  and  _353
REMARK  157  A    between atoms: _353  and  _354
REMARK  158  A    between atoms: _357  and  _359
REMARK  159  A    between atoms: _359  and  _360
REMARK  160  A    between atoms: _362  and  _364
REMARK  161  A    between atoms: _364  and  _365
REMARK  162  A    between atoms: _364  and  _367
REMARK  163  A    between atoms: _367  and  _368
REMARK  164  A    between atoms: _374  and  _376
REMARK  165  A    between atoms: _376  and  _377
REMARK  166  A    between atoms: _379  and  _381
REMARK  167  A    between atoms: _381  and  _382
REMARK  168  A    between atoms: _381  and  _384
REMARK  169  A    between atoms: _387  and  _389
REMARK  170  A    between atoms: _389  and  _390
REMARK  171  A    between atoms: _392  and  _394
REMARK  172  A    between atoms: _394  and  _395
REMARK  173  A    between atoms: _394  and  _397
REMARK  174  A    between atoms: _397  and  _398
REMARK  175  A    between atoms: _404  and  _406
REMARK  176  A    between atoms: _406  and  _407
REMARK  177  A    between atoms: _406  and  _409
REMARK  178  A    between atoms: _409  and  _410
REMARK  179  A    between atoms: _415  and  _416
REMARK  180  A    between atoms: _418  and  _420
REMARK  181  A    between atoms: _420  and  _421
REMARK  182  A    between atoms: _420  and  _423
REMARK  183  A    between atoms: _423  and  _424
REMARK  184  A    between atoms: _429  and  _430
REMARK  185  A    between atoms: _432  and  _434
REMARK  186  A    between atoms: _434  and  _435
REMARK  187  A    between atoms: _434  and  _437
REMARK  188  A    between atoms: _440  and  _442
REMARK  189  A    between atoms: _442  and  _443
REMARK  190  A    between atoms: _442  and  _445
REMARK  191  A    between atoms: _445  and  _446
REMARK  192  A    between atoms: _449  and  _451
REMARK  193  A    between atoms: _451  and  _452
REMARK  194  A    between atoms: _451  and  _454
REMARK  195  A    between atoms: _457  and  _459
REMARK  196  A    between atoms: _459  and  _460
REMARK  197  A    between atoms: _459  and  _462
REMARK  198  A    between atoms: _462  and  _463
REMARK  199  A    between atoms: _466  and  _468
REMARK  200  A    between atoms: _468  and  _469
REMARK  201  A    between atoms: _468  and  _471
REMARK  202  A    between atoms: _471  and  _472
REMARK  203  A    between atoms: _475  and  _477
REMARK  204  A    between atoms: _477  and  _478
REMARK  205  A    between atoms: _477  and  _480
REMARK  206  A    between atoms: _480  and  _481
REMARK  207  A    between atoms: _481  and  _482
REMARK  208  A    between atoms: _482  and  _483
REMARK  209  A    between atoms: _483  and  _484
REMARK  210  A    between atoms: _488  and  _490
REMARK  211  A    between atoms: _490  and  _491
REMARK  212  A    between atoms: _490  and  _493
REMARK  213  A    between atoms: _493  and  _494
REMARK  214  A    between atoms: _504  and  _506
REMARK  215  A    between atoms: _506  and  _507
REMARK  216  A    between atoms: _506  and  _509
REMARK  217  A    between atoms: _509  and  _510
REMARK  218  A    between atoms: _510  and  _511
REMARK  219  A    between atoms: _514  and  _516
REMARK  220  A    between atoms: _516  and  _517
REMARK  221  A    between atoms: _516  and  _519
REMARK  222  A    between atoms: _519  and  _520
REMARK  223  A    between atoms: _522  and  _524
REMARK  224  A    between atoms: _524  and  _525
REMARK  225  A    between atoms: _524  and  _527
REMARK  226  A    between atoms: _527  and  _528
REMARK  227  A    between atoms: _534  and  _536
REMARK  228  A    between atoms: _536  and  _537
REMARK  229  A    between atoms: _536  and  _539
REMARK  230  A    between atoms: _539  and  _540
REMARK  231  A    between atoms: _543  and  _545
REMARK  232  A    between atoms: _545  and  _546
REMARK  233  A    between atoms: _545  and  _548
REMARK  234  A    between atoms: _551  and  _553
REMARK  235  A    between atoms: _553  and  _554
REMARK  236  A    between atoms: _556  and  _558
REMARK  237  A    between atoms: _558  and  _559
REMARK  238  A    between atoms: _558  and  _561
REMARK  239  A    between atoms: _561  and  _562
REMARK  240  A    between atoms: _565  and  _567
REMARK  241  A    between atoms: _567  and  _568
REMARK  242  A    between atoms: _567  and  _570
REMARK  243  A    between atoms: _570  and  _571
REMARK  244  A    between atoms: _571  and  _572
REMARK  245  A    between atoms: _572  and  _573
REMARK  246  A    between atoms: _573  and  _574
REMARK  247  A    between atoms: _578  and  _580
REMARK  248  A    between atoms: _580  and  _581
REMARK  249  A    between atoms: _580  and  _583
REMARK                            x       y       z     vdW  Elec       q    Type
REMARK                         _______ _______ _______ _____ _____    ______ ____
ROOT
ATOM      1  C   PHE A   1      17.602 -15.832 -25.043  0.00  0.00    +0.239 C 
ATOM      2  O   PHE A   1      18.757 -16.280 -24.943  0.00  0.00    -0.274 OA
ATOM      3  N   GLN A   2      17.314 -14.504 -25.060  0.00  0.00    -0.298 N 
ATOM      4  H   GLN A   2      16.324 -14.218 -25.198  0.00  0.00    +0.150 HD
ENDROOT
BRANCH   1   5
ATOM      5  CA  PHE A   1      16.427 -16.809 -25.128  0.00  0.00    +0.149 C 
BRANCH   5   6
ATOM      6  N   PHE A   1      16.955 -18.058 -25.679  0.00  0.00    -0.238 NA
ATOM      7  H   PHE A   1      17.061 -18.878 -25.048  0.00  0.00    +0.142 HD
ENDBRANCH   5   6
BRANCH   5   8
ATOM      8  CB  PHE A   1      15.916 -17.020 -23.684  0.00  0.00    +0.053 C 
BRANCH   8   9
ATOM      9  CG  PHE A   1      14.534 -17.596 -23.532  0.00  0.00    -0.020 A 
ATOM     10  CD2 PHE A   1      14.355 -18.902 -23.084  0.00  0.00    -0.004 A 
ATOM     11  CE2 PHE A   1      13.068 -19.438 -22.937  0.00  0.00    -0.000 A 
ATOM     12  CZ  PHE A   1      11.952 -18.660 -23.216  0.00  0.00    -0.000 A 
ATOM     13  CE1 PHE A   1      12.110 -17.353 -23.641  0.00  0.00    -0.000 A 
ATOM     14  CD1 PHE A   1      13.401 -16.821 -23.800  0.00  0.00    -0.004 A 
ENDBRANCH   8   9
ENDBRANCH   5   8
ENDBRANCH   1   5
BRANCH   3  15
ATOM     15  CA  GLN A   2      18.331 -13.444 -24.893  0.00  0.00    +0.137 C 
BRANCH  15  16
ATOM     16  C   GLN A   2      18.920 -13.708 -23.491  0.00  0.00    +0.227 C 
ATOM     17  O   GLN A   2      18.150 -14.052 -22.578  0.00  0.00    -0.286 OA
ENDBRANCH  15  16
BRANCH  15  18
ATOM     18  CB  GLN A   2      17.690 -12.045 -24.949  0.00  0.00    +0.037 C 
BRANCH  18  19
ATOM     19  CG  GLN A   2      17.187 -11.628 -26.339  0.00  0.00    +0.087 C 
BRANCH  19  20
ATOM     20  CD  GLN A   2      17.886 -10.408 -26.902  0.00  0.00    +0.219 C 
ATOM     21  OE1 GLN A   2      19.120 -10.283 -26.890  0.00  0.00    -0.275 OA
ATOM     22  NE2 GLN A   2      17.104  -9.488 -27.448  0.00  0.00    -0.329 N 
ATOM     23 HE21 GLN A   2      16.072  -9.615 -27.446  0.00  0.00    +0.145 HD
ATOM     24 HE22 GLN A   2      17.522  -8.639 -27.879  0.00  0.00    +0.145 HD
ENDBRANCH  19  20
ENDBRANCH  18  19
ENDBRANCH  15  18
ENDBRANCH   3  15
TORSDOF 9
REMARK  Name = ../refined-set-2016/4o07/4o07_pocket.pdb
REMARK  249 active torsions:
REMARK  status: ('A' for Active; 'I' for Inactive)
REMARK    1  A    between atoms: _1  and  _3
REMARK    2  A    between atoms: _3  and  _4
REMARK    3  A    between atoms: _3  and  _6
REMARK    4  A    between atoms: _6  and  _7
REMARK    5  A    between atoms: _13  and  _15
REMARK    6  A    between atoms: _15  and  _16
REMARK    7  A    between atoms: _15  and  _18
REMARK    8  A    between atoms: _18  and  _19
REMARK    9  A    between atoms: _19  and  _20
REMARK   10  A    between atoms: _25  and  _27
REMARK   11  A    between atoms: _27  and  _28
REMARK   12  A    between atoms: _27  and  _30
REMARK   13  A    between atoms: _30  and  _31
REMARK   14  A    between atoms: _34  and  _36
REMARK   15  A    between atoms: _36  and  _37
REMARK   16  A    between atoms: _36  and  _39
REMARK   17  A    between atoms: _39  and  _40
REMARK   18  A    between atoms: _40  and  _41
REMARK   19  A    between atoms: _44  and  _46
REMARK   20  A    between atoms: _46  and  _47
REMARK   21  A    between atoms: _46  and  _49
REMARK   22  A    between atoms: _49  and  _50
REMARK   23  A    between atoms: _53  and  _55
REMARK   24  A    between atoms: _55  and  _56
REMARK   25  A    between atoms: _55  and  _58
REMARK   26  A    between atoms: _58  and  _59
REMARK   27  A    between atoms: _62  and  _64
REMARK   28  A    between atoms: _64  and  _65
REMARK   29  A    between atoms: _64  and  _67
REMARK   30  A    between atoms: _67  and  _68
REMARK   31  A    between atoms: _70  and  _72
REMARK   32  A    between atoms: _72  and  _73
REMARK   33  A    between atoms: _72  and  _75
REMARK   34  A    between atoms: _75  and  _76
REMARK   35  A    between atoms: _81  and  _83
REMARK   36  A    between atoms: _83  and  _84
REMARK   37  A    between atoms: _83  and  _86
REMARK   38  A    between atoms: _86  and  _87
REMARK   39  A    between atoms: _89  and  _91
REMARK   40  A    between atoms: _91  and  _92
REMARK   41  A    between atoms: _91  and  _94
REMARK   42  A    between atoms: _94  and  _95
REMARK   43  A    between atoms: _97  and  _99
REMARK   44  A    between atoms: _99  and  _100
REMARK   45  A    between atoms: _99  and  _102
REMARK   46  A    between atoms: _102  and  _103
REMARK   47  A    between atoms: _106  and  _108
REMARK   48  A    between atoms: _108  and  _109
REMARK   49  A    between atoms: _112  and  _114
REMARK   50  A    between atoms: _114  and  _115
REMARK   51  A    between atoms: _114  and  _117
REMARK   52  A    between atoms: _117  and  _118
REMARK   53  A    between atoms: _121  and  _123
REMARK   54  A    between atoms: _123  and  _124
REMARK   55  A    between atoms: _123  and  _126
REMARK   56  A    between atoms: _126  and  _127
REMARK   57  A    between atoms: _130  and  _132
REMARK   58  A    between atoms: _132  and  _133
REMARK   59  A    between atoms: _132  and  _135
REMARK   60  A    between atoms: _135  and  _136
REMARK   61  A    between atoms: _136  and  _137
REMARK   62  A    between atoms: _137  and  _138
REMARK   63  A    between atoms: _138  and  _139
REMARK   64  A    between atoms: _143  and  _145
REMARK   65  A    between atoms: _145  and  _146
REMARK   66  A    between atoms: _145  and  _148
REMARK   67  A    between atoms: _148  and  _149
REMARK   68  A    between atoms: _152  and  _154
REMARK   69  A    between atoms: _154  and  _155
REMARK   70  A    between atoms: _154  and  _157
REMARK   71  A    between atoms: _157  and  _158
REMARK   72  A    between atoms: _161  and  _163
REMARK   73  A    between atoms: _163  and  _164
REMARK   74  A    between atoms: _163  and  _166
REMARK   75  A    between atoms: _169  and  _171
REMARK   76  A    between atoms: _171  and  _172
REMARK   77  A    between atoms: _171  and  _174
REMARK   78  A    between atoms: _174  and  _175
REMARK   79  A    between atoms: _178  and  _180
REMARK   80  A    between atoms: _180  and  _181
REMARK   81  A    between atoms: _180  and  _183
REMARK   82  A    between atoms: _183  and  _184
REMARK   83  A    between atoms: _187  and  _189
REMARK   84  A    between atoms: _189  and  _190
REMARK   85  A    between atoms: _192  and  _194
REMARK   86  A    between atoms: _194  and  _195
REMARK   87  A    between atoms: _194  and  _197
REMARK   88  A    between atoms: _197  and  _198
REMARK   89  A    between atoms: _201  and  _203
REMARK   90  A    between atoms: _203  and  _204
REMARK   91  A    between atoms: _206  and  _208
REMARK   92  A    between atoms: _208  and  _209
REMARK   93  A    between atoms: _208  and  _211
REMARK   94  A    between atoms: _211  and  _212
REMARK   95  A    between atoms: _212  and  _213
REMARK   96  A    between atoms: _215  and  _217
REMARK   97  A    between atoms: _217  and  _218
REMARK   98  A    between atoms: _217  and  _220
REMARK   99  A    between atoms: _220  and  _221
REMARK  100  A    between atoms: _224  and  _226
REMARK  101  A    between atoms: _226  and  _227
REMARK  102  A    between atoms: _226  and  _229
REMARK  103  A    between atoms: _229  and  _230
REMARK  104  A    between atoms: _230  and  _231
REMARK  105  A    between atoms: _231  and  _232
REMARK  106  A    between atoms: _232  and  _233
REMARK  107  A    between atoms: _237  and  _239
REMARK  108  A    between atoms: _239  and  _240
REMARK  109  A    between atoms: _243  and  _245
REMARK  110  A    between atoms: _245  and  _246
REMARK  111  A    between atoms: _245  and  _248
REMARK  112  A    between atoms: _248  and  _249
REMARK  113  A    between atoms: _252  and  _254
REMARK  114  A    between atoms: _254  and  _255
REMARK  115  A    between atoms: _254  and  _257
REMARK  116  A    between atoms: _257  and  _258
REMARK  117  A    between atoms: _261  and  _263
REMARK  118  A    between atoms: _263  and  _264
REMARK  119  A    between atoms: _263  and  _266
REMARK  120  A    between atoms: _266  and  _267
REMARK  121  A    between atoms: _270  and  _272
REMARK  122  A    between atoms: _272  and  _273
REMARK  123  A    between atoms: _272  and  _275
REMARK  124  A    between atoms: _275  and  _276
REMARK  125  A    between atoms: _281  and  _283
REMARK  126  A    between atoms: _283  and  _284
REMARK  127  A    between atoms: _283  and  _286
REMARK  128  A    between atoms: _286  and  _287
REMARK  129  A    between atoms: _292  and  _294
REMARK  130  A    between atoms: _294  and  _295
REMARK  131  A    between atoms: _294  and  _297
REMARK  132  A    between atoms: _297  and  _298
REMARK  133  A    between atoms: _301  and  _303
REMARK  134  A    between atoms: _303  and  _304
REMARK  135  A    between atoms: _306  and  _308
REMARK  136  A    between atoms: _308  and  _309
REMARK  137  A    between atoms: _308  and  _311
REMARK  138  A    between atoms: _311  and  _312
REMARK  139  A    between atoms: _315  and  _317
REMARK  140  A    between atoms: _317  and  _318
REMARK  141  A    between atoms: _317  and  _320
REMARK  142  A    between atoms: _320  and  _321
REMARK  143  A    between atoms: _324  and  _326
REMARK  144  A    between atoms: _326  and  _327
REMARK  145  A    between atoms: _330  and  _332
REMARK  146  A    between atoms: _332  and  _333
REMARK  147  A    between atoms: _332  and  _335
REMARK  148  A    between atoms: _335  and  _336
REMARK  149  A    between atoms: _336  and  _337
REMARK  150  A    between atoms: _337  and  _338
REMARK  151  A    between atoms: _338  and  _339
REMARK  152  A    between atoms: _343  and  _345
REMARK  153  A    between atoms: _345  and  _346
REMARK  154  A    between atoms: _348  and  _350
REMARK  155  A    between atoms: _350  and  _351
REMARK  156  A    between atoms: _350  and  _353
REMARK  157  A    between atoms: _353  and  _354
REMARK  158  A    between atoms: _357  and  _359
REMARK  159  A    between atoms: _359  and  _360
REMARK  160  A    between atoms: _362  and  _364
REMARK  161  A    between atoms: _364  and  _365
REMARK  162  A    between atoms: _364  and  _367
REMARK  163  A    between atoms: _367  and  _368
REMARK  164  A    between atoms: _374  and  _376
REMARK  165  A    between atoms: _376  and  _377
REMARK  166  A    between atoms: _379  and  _381
REMARK  167  A    between atoms: _381  and  _382
REMARK  168  A    between atoms: _381  and  _384
REMARK  169  A    between atoms: _387  and  _389
REMARK  170  A    between atoms: _389  and  _390
REMARK  171  A    between atoms: _392  and  _394
REMARK  172  A    between atoms: _394  and  _395
REMARK  173  A    between atoms: _394  and  _397
REMARK  174  A    between atoms: _397  and  _398
REMARK  175  A    between atoms: _404  and  _406
REMARK  176  A    between atoms: _406  and  _407
REMARK  177  A    between atoms: _406  and  _409
REMARK  178  A    between atoms: _409  and  _410
REMARK  179  A    between atoms: _415  and  _416
REMARK  180  A    between atoms: _418  and  _420
REMARK  181  A    between atoms: _420  and  _421
REMARK  182  A    between atoms: _420  and  _423
REMARK  183  A    between atoms: _423  and  _424
REMARK  184  A    between atoms: _429  and  _430
REMARK  185  A    between atoms: _432  and  _434
REMARK  186  A    between atoms: _434  and  _435
REMARK  187  A    between atoms: _434  and  _437
REMARK  188  A    between atoms: _440  and  _442
REMARK  189  A    between atoms: _442  and  _443
REMARK  190  A    between atoms: _442  and  _445
REMARK  191  A    between atoms: _445  and  _446
REMARK  192  A    between atoms: _449  and  _451
REMARK  193  A    between atoms: _451  and  _452
REMARK  194  A    between atoms: _451  and  _454
REMARK  195  A    between atoms: _457  and  _459
REMARK  196  A    between atoms: _459  and  _460
REMARK  197  A    between atoms: _459  and  _462
REMARK  198  A    between atoms: _462  and  _463
REMARK  199  A    between atoms: _466  and  _468
REMARK  200  A    between atoms: _468  and  _469
REMARK  201  A    between atoms: _468  and  _471
REMARK  202  A    between atoms: _471  and  _472
REMARK  203  A    between atoms: _475  and  _477
REMARK  204  A    between atoms: _477  and  _478
REMARK  205  A    between atoms: _477  and  _480
REMARK  206  A    between atoms: _480  and  _481
REMARK  207  A    between atoms: _481  and  _482
REMARK  208  A    between atoms: _482  and  _483
REMARK  209  A    between atoms: _483  and  _484
REMARK  210  A    between atoms: _488  and  _490
REMARK  211  A    between atoms: _490  and  _491
REMARK  212  A    between atoms: _490  and  _493
REMARK  213  A    between atoms: _493  and  _494
REMARK  214  A    between atoms: _504  and  _506
REMARK  215  A    between atoms: _506  and  _507
REMARK  216  A    between atoms: _506  and  _509
REMARK  217  A    between atoms: _509  and  _510
REMARK  218  A    between atoms: _510  and  _511
REMARK  219  A    between atoms: _514  and  _516
REMARK  220  A    between atoms: _516  and  _517
REMARK  221  A    between atoms: _516  and  _519
REMARK  222  A    between atoms: _519  and  _520
REMARK  223  A    between atoms: _522  and  _524
REMARK  224  A    between atoms: _524  and  _525
REMARK  225  A    between atoms: _524  and  _527
REMARK  226  A    between atoms: _527  and  _528
REMARK  227  A    between atoms: _534  and  _536
REMARK  228  A    between atoms: _536  and  _537
REMARK  229  A    between atoms: _536  and  _539
REMARK  230  A    between atoms: _539  and  _540
REMARK  231  A    between atoms: _543  and  _545
REMARK  232  A    between atoms: _545  and  _546
REMARK  233  A    between atoms: _545  and  _548
REMARK  234  A    between atoms: _551  and  _553
REMARK  235  A    between atoms: _553  and  _554
REMARK  236  A    between atoms: _556  and  _558
REMARK  237  A    between atoms: _558  and  _559
REMARK  238  A    between atoms: _558  and  _561
REMARK  239  A    between atoms: _561  and  _562
REMARK  240  A    between atoms: _565  and  _567
REMARK  241  A    between atoms: _567  and  _568
REMARK  242  A    between atoms: _567  and  _570
REMARK  243  A    between atoms: _570  and  _571
REMARK  244  A    between atoms: _571  and  _572
REMARK  245  A    between atoms: _572  and  _573
REMARK  246  A    between atoms: _573  and  _574
REMARK  247  A    between atoms: _578  and  _580
REMARK  248  A    between atoms: _580  and  _581
REMARK  249  A    between atoms: _580  and  _583
REMARK                            x       y       z     vdW  Elec       q    Type
REMARK                         _______ _______ _______ _____ _____    ______ ____
ROOT
ATOM      1  CA  ILE A   1      15.746 -13.209 -20.241  0.00  0.00    +0.133 C 
ENDROOT
BRANCH   1   2
ATOM      2  N   ILE A   1      17.043 -12.516 -20.371  0.00  0.00    -0.239 NA
ATOM      3  H   ILE A   1      17.388 -12.341 -21.337  0.00  0.00    +0.142 HD
ENDBRANCH   1   2
BRANCH   1   4
ATOM      4  C   ILE A   1      15.953 -14.560 -19.537  0.00  0.00    +0.224 C 
ATOM      5  O   ILE A   1      15.205 -14.868 -18.608  0.00  0.00    -0.287 OA
ENDBRANCH   1   4
BRANCH   1   6
ATOM      6  CB  ILE A   1      15.006 -13.370 -21.618  0.00  0.00    +0.023 C 
ATOM      7  CG2 ILE A   1      13.615 -13.987 -21.459  0.00  0.00    +0.002 C 
BRANCH   6   8
ATOM      8  CG1 ILE A   1      14.945 -12.041 -22.461  0.00  0.00    +0.002 C 
ATOM      9  CD1 ILE A   1      14.238 -10.758 -21.889  0.00  0.00    +0.000 C 
ENDBRANCH   6   8
ENDBRANCH   1   6
TORSDOF 4
REMARK  Name = ../refined-set-2016/4o07/4o07_pocket.pdb
REMARK  249 active torsions:
REMARK  status: ('A' for Active; 'I' for Inactive)
REMARK    1  A    between atoms: _1  and  _3
REMARK    2  A    between atoms: _3  and  _4
REMARK    3  A    between atoms: _3  and  _6
REMARK    4  A    between atoms: _6  and  _7
REMARK    5  A    between atoms: _13  and  _15
REMARK    6  A    between atoms: _15  and  _16
REMARK    7  A    between atoms: _15  and  _18
REMARK    8  A    between atoms: _18  and  _19
REMARK    9  A    between atoms: _19  and  _20
REMARK   10  A    between atoms: _25  and  _27
REMARK   11  A    between atoms: _27  and  _28
REMARK   12  A    between atoms: _27  and  _30
REMARK   13  A    between atoms: _30  and  _31
REMARK   14  A    between atoms: _34  and  _36
REMARK   15  A    between atoms: _36  and  _37
REMARK   16  A    between atoms: _36  and  _39
REMARK   17  A    between atoms: _39  and  _40
REMARK   18  A    between atoms: _40  and  _41
REMARK   19  A    between atoms: _44  and  _46
REMARK   20  A    between atoms: _46  and  _47
REMARK   21  A    between atoms: _46  and  _49
REMARK   22  A    between atoms: _49  and  _50
REMARK   23  A    between atoms: _53  and  _55
REMARK   24  A    between atoms: _55  and  _56
REMARK   25  A    between atoms: _55  and  _58
REMARK   26  A    between atoms: _58  and  _59
REMARK   27  A    between atoms: _62  and  _64
REMARK   28  A    between atoms: _64  and  _65
REMARK   29  A    between atoms: _64  and  _67
REMARK   30  A    between atoms: _67  and  _68
REMARK   31  A    between atoms: _70  and  _72
REMARK   32  A    between atoms: _72  and  _73
REMARK   33  A    between atoms: _72  and  _75
REMARK   34  A    between atoms: _75  and  _76
REMARK   35  A    between atoms: _81  and  _83
REMARK   36  A    between atoms: _83  and  _84
REMARK   37  A    between atoms: _83  and  _86
REMARK   38  A    between atoms: _86  and  _87
REMARK   39  A    between atoms: _89  and  _91
REMARK   40  A    between atoms: _91  and  _92
REMARK   41  A    between atoms: _91  and  _94
REMARK   42  A    between atoms: _94  and  _95
REMARK   43  A    between atoms: _97  and  _99
REMARK   44  A    between atoms: _99  and  _100
REMARK   45  A    between atoms: _99  and  _102
REMARK   46  A    between atoms: _102  and  _103
REMARK   47  A    between atoms: _106  and  _108
REMARK   48  A    between atoms: _108  and  _109
REMARK   49  A    between atoms: _112  and  _114
REMARK   50  A    between atoms: _114  and  _115
REMARK   51  A    between atoms: _114  and  _117
REMARK   52  A    between atoms: _117  and  _118
REMARK   53  A    between atoms: _121  and  _123
REMARK   54  A    between atoms: _123  and  _124
REMARK   55  A    between atoms: _123  and  _126
REMARK   56  A    between atoms: _126  and  _127
REMARK   57  A    between atoms: _130  and  _132
REMARK   58  A    between atoms: _132  and  _133
REMARK   59  A    between atoms: _132  and  _135
REMARK   60  A    between atoms: _135  and  _136
REMARK   61  A    between atoms: _136  and  _137
REMARK   62  A    between atoms: _137  and  _138
REMARK   63  A    between atoms: _138  and  _139
REMARK   64  A    between atoms: _143  and  _145
REMARK   65  A    between atoms: _145  and  _146
REMARK   66  A    between atoms: _145  and  _148
REMARK   67  A    between atoms: _148  and  _149
REMARK   68  A    between atoms: _152  and  _154
REMARK   69  A    between atoms: _154  and  _155
REMARK   70  A    between atoms: _154  and  _157
REMARK   71  A    between atoms: _157  and  _158
REMARK   72  A    between atoms: _161  and  _163
REMARK   73  A    between atoms: _163  and  _164
REMARK   74  A    between atoms: _163  and  _166
REMARK   75  A    between atoms: _169  and  _171
REMARK   76  A    between atoms: _171  and  _172
REMARK   77  A    between atoms: _171  and  _174
REMARK   78  A    between atoms: _174  and  _175
REMARK   79  A    between atoms: _178  and  _180
REMARK   80  A    between atoms: _180  and  _181
REMARK   81  A    between atoms: _180  and  _183
REMARK   82  A    between atoms: _183  and  _184
REMARK   83  A    between atoms: _187  and  _189
REMARK   84  A    between atoms: _189  and  _190
REMARK   85  A    between atoms: _192  and  _194
REMARK   86  A    between atoms: _194  and  _195
REMARK   87  A    between atoms: _194  and  _197
REMARK   88  A    between atoms: _197  and  _198
REMARK   89  A    between atoms: _201  and  _203
REMARK   90  A    between atoms: _203  and  _204
REMARK   91  A    between atoms: _206  and  _208
REMARK   92  A    between atoms: _208  and  _209
REMARK   93  A    between atoms: _208  and  _211
REMARK   94  A    between atoms: _211  and  _212
REMARK   95  A    between atoms: _212  and  _213
REMARK   96  A    between atoms: _215  and  _217
REMARK   97  A    between atoms: _217  and  _218
REMARK   98  A    between atoms: _217  and  _220
REMARK   99  A    between atoms: _220  and  _221
REMARK  100  A    between atoms: _224  and  _226
REMARK  101  A    between atoms: _226  and  _227
REMARK  102  A    between atoms: _226  and  _229
REMARK  103  A    between atoms: _229  and  _230
REMARK  104  A    between atoms: _230  and  _231
REMARK  105  A    between atoms: _231  and  _232
REMARK  106  A    between atoms: _232  and  _233
REMARK  107  A    between atoms: _237  and  _239
REMARK  108  A    between atoms: _239  and  _240
REMARK  109  A    between atoms: _243  and  _245
REMARK  110  A    between atoms: _245  and  _246
REMARK  111  A    between atoms: _245  and  _248
REMARK  112  A    between atoms: _248  and  _249
REMARK  113  A    between atoms: _252  and  _254
REMARK  114  A    between atoms: _254  and  _255
REMARK  115  A    between atoms: _254  and  _257
REMARK  116  A    between atoms: _257  and  _258
REMARK  117  A    between atoms: _261  and  _263
REMARK  118  A    between atoms: _263  and  _264
REMARK  119  A    between atoms: _263  and  _266
REMARK  120  A    between atoms: _266  and  _267
REMARK  121  A    between atoms: _270  and  _272
REMARK  122  A    between atoms: _272  and  _273
REMARK  123  A    between atoms: _272  and  _275
REMARK  124  A    between atoms: _275  and  _276
REMARK  125  A    between atoms: _281  and  _283
REMARK  126  A    between atoms: _283  and  _284
REMARK  127  A    between atoms: _283  and  _286
REMARK  128  A    between atoms: _286  and  _287
REMARK  129  A    between atoms: _292  and  _294
REMARK  130  A    between atoms: _294  and  _295
REMARK  131  A    between atoms: _294  and  _297
REMARK  132  A    between atoms: _297  and  _298
REMARK  133  A    between atoms: _301  and  _303
REMARK  134  A    between atoms: _303  and  _304
REMARK  135  A    between atoms: _306  and  _308
REMARK  136  A    between atoms: _308  and  _309
REMARK  137  A    between atoms: _308  and  _311
REMARK  138  A    between atoms: _311  and  _312
REMARK  139  A    between atoms: _315  and  _317
REMARK  140  A    between atoms: _317  and  _318
REMARK  141  A    between atoms: _317  and  _320
REMARK  142  A    between atoms: _320  and  _321
REMARK  143  A    between atoms: _324  and  _326
REMARK  144  A    between atoms: _326  and  _327
REMARK  145  A    between atoms: _330  and  _332
REMARK  146  A    between atoms: _332  and  _333
REMARK  147  A    between atoms: _332  and  _335
REMARK  148  A    between atoms: _335  and  _336
REMARK  149  A    between atoms: _336  and  _337
REMARK  150  A    between atoms: _337  and  _338
REMARK  151  A    between atoms: _338  and  _339
REMARK  152  A    between atoms: _343  and  _345
REMARK  153  A    between atoms: _345  and  _346
REMARK  154  A    between atoms: _348  and  _350
REMARK  155  A    between atoms: _350  and  _351
REMARK  156  A    between atoms: _350  and  _353
REMARK  157  A    between atoms: _353  and  _354
REMARK  158  A    between atoms: _357  and  _359
REMARK  159  A    between atoms: _359  and  _360
REMARK  160  A    between atoms: _362  and  _364
REMARK  161  A    between atoms: _364  and  _365
REMARK  162  A    between atoms: _364  and  _367
REMARK  163  A    between atoms: _367  and  _368
REMARK  164  A    between atoms: _374  and  _376
REMARK  165  A    between atoms: _376  and  _377
REMARK  166  A    between atoms: _379  and  _381
REMARK  167  A    between atoms: _381  and  _382
REMARK  168  A    between atoms: _381  and  _384
REMARK  169  A    between atoms: _387  and  _389
REMARK  170  A    between atoms: _389  and  _390
REMARK  171  A    between atoms: _392  and  _394
REMARK  172  A    between atoms: _394  and  _395
REMARK  173  A    between atoms: _394  and  _397
REMARK  174  A    between atoms: _397  and  _398
REMARK  175  A    between atoms: _404  and  _406
REMARK  176  A    between atoms: _406  and  _407
REMARK  177  A    between atoms: _406  and  _409
REMARK  178  A    between atoms: _409  and  _410
REMARK  179  A    between atoms: _415  and  _416
REMARK  180  A    between atoms: _418  and  _420
REMARK  181  A    between atoms: _420  and  _421
REMARK  182  A    between atoms: _420  and  _423
REMARK  183  A    between atoms: _423  and  _424
REMARK  184  A    between atoms: _429  and  _430
REMARK  185  A    between atoms: _432  and  _434
REMARK  186  A    between atoms: _434  and  _435
REMARK  187  A    between atoms: _434  and  _437
REMARK  188  A    between atoms: _440  and  _442
REMARK  189  A    between atoms: _442  and  _443
REMARK  190  A    between atoms: _442  and  _445
REMARK  191  A    between atoms: _445  and  _446
REMARK  192  A    between atoms: _449  and  _451
REMARK  193  A    between atoms: _451  and  _452
REMARK  194  A    between atoms: _451  and  _454
REMARK  195  A    between atoms: _457  and  _459
REMARK  196  A    between atoms: _459  and  _460
REMARK  197  A    between atoms: _459  and  _462
REMARK  198  A    between atoms: _462  and  _463
REMARK  199  A    between atoms: _466  and  _468
REMARK  200  A    between atoms: _468  and  _469
REMARK  201  A    between atoms: _468  and  _471
REMARK  202  A    between atoms: _471  and  _472
REMARK  203  A    between atoms: _475  and  _477
REMARK  204  A    between atoms: _477  and  _478
REMARK  205  A    between atoms: _477  and  _480
REMARK  206  A    between atoms: _480  and  _481
REMARK  207  A    between atoms: _481  and  _482
REMARK  208  A    between atoms: _482  and  _483
REMARK  209  A    between atoms: _483  and  _484
REMARK  210  A    between atoms: _488  and  _490
REMARK  211  A    between atoms: _490  and  _491
REMARK  212  A    between atoms: _490  and  _493
REMARK  213  A    between atoms: _493  and  _494
REMARK  214  A    between atoms: _504  and  _506
REMARK  215  A    between atoms: _506  and  _507
REMARK  216  A    between atoms: _506  and  _509
REMARK  217  A    between atoms: _509  and  _510
REMARK  218  A    between atoms: _510  and  _511
REMARK  219  A    between atoms: _514  and  _516
REMARK  220  A    between atoms: _516  and  _517
REMARK  221  A    between atoms: _516  and  _519
REMARK  222  A    between atoms: _519  and  _520
REMARK  223  A    between atoms: _522  and  _524
REMARK  224  A    between atoms: _524  and  _525
REMARK  225  A    between atoms: _524  and  _527
REMARK  226  A    between atoms: _527  and  _528
REMARK  227  A    between atoms: _534  and  _536
REMARK  228  A    between atoms: _536  and  _537
REMARK  229  A    between atoms: _536  and  _539
REMARK  230  A    between atoms: _539  and  _540
REMARK  231  A    between atoms: _543  and  _545
REMARK  232  A    between atoms: _545  and  _546
REMARK  233  A    between atoms: _545  and  _548
REMARK  234  A    between atoms: _551  and  _553
REMARK  235  A    between atoms: _553  and  _554
REMARK  236  A    between atoms: _556  and  _558
REMARK  237  A    between atoms: _558  and  _559
REMARK  238  A    between atoms: _558  and  _561
REMARK  239  A    between atoms: _561  and  _562
REMARK  240  A    between atoms: _565  and  _567
REMARK  241  A    between atoms: _567  and  _568
REMARK  242  A    between atoms: _567  and  _570
REMARK  243  A    between atoms: _570  and  _571
REMARK  244  A    between atoms: _571  and  _572
REMARK  245  A    between atoms: _572  and  _573
REMARK  246  A    between atoms: _573  and  _574
REMARK  247  A    between atoms: _578  and  _580
REMARK  248  A    between atoms: _580  and  _581
REMARK  249  A    between atoms: _580  and  _583
REMARK                            x       y       z     vdW  Elec       q    Type
REMARK                         _______ _______ _______ _____ _____    ______ ____
ROOT
ATOM      1  CA  SER A   7      -5.976  -6.459 -21.374  0.00  0.00    +0.178 C 
ENDROOT
BRANCH   1   3
ATOM      2  C   SER A   6      -5.141  -8.553 -22.474  0.00  0.00    +0.243 C 
ATOM      3  N   SER A   7      -5.278  -7.764 -21.381  0.00  0.00    -0.295 N 
ATOM      4  H   SER A   7      -4.865  -8.098 -20.487  0.00  0.00    +0.150 HD
ATOM      5  O   SER A   6      -5.591  -8.256 -23.583  0.00  0.00    -0.273 OA
BRANCH   2   6
ATOM      6  CA  SER A   6      -4.353  -9.866 -22.312  0.00  0.00    +0.178 C 
BRANCH   6   8
ATOM      7  C   ASN A   5      -2.095  -8.824 -21.969  0.00  0.00    +0.241 C 
ATOM      8  N   SER A   6      -3.108  -9.638 -21.557  0.00  0.00    -0.295 N 
ATOM      9  H   SER A   6      -2.995 -10.131 -20.649  0.00  0.00    +0.150 HD
ATOM     10  O   ASN A   5      -2.129  -8.165 -23.011  0.00  0.00    -0.273 OA
BRANCH   7  11
ATOM     11  CA  ASN A   5      -0.882  -8.690 -21.028  0.00  0.00    +0.158 C 
BRANCH  11  13
ATOM     12  C   SER A   4      -2.135  -7.359 -19.274  0.00  0.00    +0.243 C 
ATOM     13  N   ASN A   5      -1.389  -8.436 -19.651  0.00  0.00    -0.297 N 
ATOM     14  H   ASN A   5      -1.155  -9.136 -18.918  0.00  0.00    +0.150 HD
ATOM     15  O   SER A   4      -2.463  -6.453 -20.039  0.00  0.00    -0.273 OA
BRANCH  12  16
ATOM     16  CA  SER A   4      -2.602  -7.295 -17.817  0.00  0.00    +0.178 C 
BRANCH  16  18
ATOM     17  C   ILE A   3      -4.147  -9.285 -17.888  0.00  0.00    +0.241 C 
ATOM     18  N   SER A   4      -3.086  -8.609 -17.350  0.00  0.00    -0.295 N 
ATOM     19  H   SER A   4      -2.584  -9.053 -16.555  0.00  0.00    +0.150 HD
ATOM     20  O   ILE A   3      -4.832  -8.855 -18.834  0.00  0.00    -0.273 OA
BRANCH  17  21
ATOM     21  CA  ILE A   3      -4.508 -10.690 -17.292  0.00  0.00    +0.149 C 
BRANCH  21  23
ATOM     22  C   LEU A   2      -2.358 -11.759 -17.993  0.00  0.00    +0.241 C 
ATOM     23  N   ILE A   3      -3.252 -11.429 -17.019  0.00  0.00    -0.297 N 
ATOM     24  H   ILE A   3      -3.044 -11.708 -16.039  0.00  0.00    +0.150 HD
ATOM     25  O   LEU A   2      -2.518 -11.490 -19.191  0.00  0.00    -0.273 OA
BRANCH  22  26
ATOM     26  CA  LEU A   2      -1.067 -12.441 -17.560  0.00  0.00    +0.149 C 
BRANCH  26  28
ATOM     27  C   GLU A   1      -0.046 -10.598 -16.240  0.00  0.00    +0.238 C 
ATOM     28  N   LEU A   2      -0.567 -11.841 -16.312  0.00  0.00    -0.297 N 
ATOM     29  H   LEU A   2      -0.618 -12.405 -15.440  0.00  0.00    +0.150 HD
ATOM     30  O   GLU A   1       0.074  -9.848 -17.215  0.00  0.00    -0.274 OA
BRANCH  27  31
ATOM     31  CA  GLU A   1       0.398 -10.111 -14.869  0.00  0.00    +0.145 C 
BRANCH  31  32
ATOM     32  N   GLU A   1      -0.586 -10.426 -13.823  0.00  0.00    -0.238 NA
ATOM     33  H   GLU A   1      -0.323 -11.113 -13.088  0.00  0.00    +0.142 HD
ENDBRANCH  31  32
BRANCH  31  34
ATOM     34  CB  GLU A   1       1.809 -10.603 -14.506  0.00  0.00    +0.038 C 
BRANCH  34  35
ATOM     35  CG  GLU A   1       2.421  -9.912 -13.280  0.00  0.00    +0.116 C 
BRANCH  35  36
ATOM     36  CD  GLU A   1       2.412  -8.389 -13.245  0.00  0.00    +0.365 C 
ATOM     37  OE2 GLU A   1       2.194  -7.830 -12.148  0.00  0.00    -0.246 OA
ATOM     38  OE1 GLU A   1       2.607  -7.754 -14.306  0.00  0.00    -0.246 OA
ENDBRANCH  35  36
ENDBRANCH  34  35
ENDBRANCH  31  34
ENDBRANCH  27  31
ENDBRANCH  26  28
BRANCH  26  39
ATOM     39  CB  LEU A   2      -1.187 -13.981 -17.477  0.00  0.00    +0.029 C 
BRANCH  39  40
ATOM     40  CG  LEU A   2       0.159 -14.726 -17.270  0.00  0.00    +0.002 C 
ATOM     41  CD2 LEU A   2      -0.063 -16.161 -16.895  0.00  0.00    +0.000 C 
ATOM     42  CD1 LEU A   2       1.096 -14.606 -18.502  0.00  0.00    +0.000 C 
ENDBRANCH  39  40
ENDBRANCH  26  39
ENDBRANCH  22  26
ENDBRANCH  21  23
BRANCH  21  43
ATOM     43  CB  ILE A   3      -5.502 -10.665 -16.083  0.00  0.00    +0.027 C 
ATOM     44  CG2 ILE A   3      -6.604  -9.569 -16.248  0.00  0.00    +0.002 C 
BRANCH  43  45
ATOM     45  CG1 ILE A   3      -6.159 -12.071 -15.895  0.00  0.00    +0.002 C 
ATOM     46  CD1 ILE A   3      -6.993 -12.290 -14.557  0.00  0.00    +0.000 C 
ENDBRANCH  43  45
ENDBRANCH  21  43
ENDBRANCH  17  21
ENDBRANCH  16  18
BRANCH  16  47
ATOM     47  CB  SER A   4      -1.485  -6.763 -16.925  0.00  0.00    +0.166 C 
BRANCH  47  48
ATOM     48  OG  SER A   4      -1.962  -6.541 -15.609  0.00  0.00    -0.380 OA
ATOM     49  H   SER A   4      -2.296  -7.393 -15.232  0.00  0.00    +0.211 HD
ENDBRANCH  47  48
ENDBRANCH  16  47
ENDBRANCH  12  16
ENDBRANCH  11  13
BRANCH  11  50
ATOM     50  CB  ASN A   5      -0.061  -9.994 -21.074  0.00  0.00    +0.114 C 
BRANCH  50  51
ATOM     51  CG  ASN A   5       1.343  -9.970 -20.513  0.00  0.00    +0.222 C 
ATOM     52  ND2 ASN A   5       1.869 -11.160 -20.286  0.00  0.00    -0.329 N 
ATOM     53 HD21 ASN A   5       2.841 -11.239 -19.924  0.00  0.00    +0.145 HD
ATOM     54 HD22 ASN A   5       1.311 -12.019 -20.469  0.00  0.00    +0.145 HD
ATOM     55  OD1 ASN A   5       1.974  -8.923 -20.308  0.00  0.00    -0.275 OA
ENDBRANCH  50  51
ENDBRANCH  11  50
ENDBRANCH   7  11
ENDBRANCH   6   8
BRANCH   6  56
ATOM     56  CB  SER A   6      -5.213 -10.922 -21.622  0.00  0.00    +0.166 C 
BRANCH  56  57
ATOM     57  OG  SER A   6      -4.630 -12.208 -21.748  0.00  0.00    -0.380 OA
ATOM     58  H   SER A   6      -4.548 -12.439 -22.707  0.00  0.00    +0.211 HD
ENDBRANCH  56  57
ENDBRANCH   6  56
ENDBRANCH   2   6
ENDBRANCH   1   3
BRANCH   1  59
ATOM     59  C   SER A   7      -5.298  -5.494 -22.368  0.00  0.00    +0.243 C 
ATOM     60  N   ASP A   8      -3.932  -5.482 -22.401  0.00  0.00    -0.296 N 
ATOM     61  H   ASP A   8      -3.422  -6.093 -21.732  0.00  0.00    +0.150 HD
ATOM     62  O   SER A   7      -6.003  -4.812 -23.121  0.00  0.00    -0.273 OA
BRANCH  60  63
ATOM     63  CA  ASP A   8      -3.139  -4.655 -23.327  0.00  0.00    +0.160 C 
BRANCH  63  64
ATOM     64  C   ASP A   8      -3.406  -5.069 -24.783  0.00  0.00    +0.241 C 
ATOM     65  N   ALA A   9      -3.497  -6.403 -25.048  0.00  0.00    -0.297 N 
ATOM     66  H   ALA A   9      -3.349  -7.067 -24.262  0.00  0.00    +0.150 HD
ATOM     67  O   ASP A   8      -3.584  -4.191 -25.634  0.00  0.00    -0.273 OA
BRANCH  65  68
ATOM     68  CA  ALA A   9      -3.793  -6.965 -26.383  0.00  0.00    +0.149 C 
ATOM     69  CB  ALA A   9      -3.646  -8.473 -26.363  0.00  0.00    +0.031 C 
BRANCH  68  70
ATOM     70  C   ALA A   9      -5.199  -6.574 -26.852  0.00  0.00    +0.241 C 
ATOM     71  N   LEU A  10      -6.174  -6.546 -25.913  0.00  0.00    -0.297 N 
ATOM     72  H   LEU A  10      -5.921  -6.811 -24.940  0.00  0.00    +0.150 HD
ATOM     73  O   ALA A   9      -5.390  -6.293 -28.042  0.00  0.00    -0.273 OA
BRANCH  71  74
ATOM     74  CA  LEU A  10      -7.565  -6.165 -26.183  0.00  0.00    +0.149 C 
BRANCH  74  75
ATOM     75  C   LEU A  10      -7.638  -4.677 -26.482  0.00  0.00    +0.241 C 
ATOM     76  N   ASP A  11      -6.923  -3.837 -25.689  0.00  0.00    -0.297 N 
ATOM     77  H   ASP A  11      -6.412  -4.250 -24.883  0.00  0.00    +0.150 HD
ATOM     78  O   LEU A  10      -8.282  -4.304 -27.453  0.00  0.00    -0.273 OA
BRANCH  76  79
ATOM     79  CA  ASP A  11      -6.821  -2.382 -25.891  0.00  0.00    +0.160 C 
BRANCH  79  80
ATOM     80  C   ASP A  11      -6.268  -2.076 -27.296  0.00  0.00    +0.241 C 
ATOM     81  N   LYS A  12      -5.190  -2.801 -27.705  0.00  0.00    -0.297 N 
ATOM     82  H   LYS A  12      -4.825  -3.527 -27.056  0.00  0.00    +0.150 HD
ATOM     83  O   ASP A  11      -6.835  -1.237 -28.000  0.00  0.00    -0.273 OA
BRANCH  81  84
ATOM     84  CA  LYS A  12      -4.504  -2.635 -28.993  0.00  0.00    +0.149 C 
BRANCH  84  85
ATOM     85  C   LYS A  12      -5.414  -2.904 -30.200  0.00  0.00    +0.241 C 
ATOM     86  N   ILE A  13      -6.159  -4.031 -30.197  0.00  0.00    -0.298 N 
ATOM     87  H   ILE A  13      -6.087  -4.678 -29.386  0.00  0.00    +0.150 HD
ATOM     88  O   LYS A  12      -5.442  -2.075 -31.110  0.00  0.00    -0.273 OA
BRANCH  86  89
ATOM     89  CA  ILE A  13      -7.071  -4.375 -31.303  0.00  0.00    +0.137 C 
BRANCH  89  90
ATOM     90  C   ILE A  13      -8.263  -3.381 -31.337  0.00  0.00    +0.227 C 
ATOM     91  O   ILE A  13      -8.644  -2.963 -32.429  0.00  0.00    -0.286 OA
ENDBRANCH  89  90
BRANCH  89  92
ATOM     92  CB  ILE A  13      -7.500  -5.885 -31.352  0.00  0.00    +0.026 C 
ATOM     93  CG2 ILE A  13      -8.319  -6.334 -30.146  0.00  0.00    +0.002 C 
BRANCH  92  94
ATOM     94  CG1 ILE A  13      -8.213  -6.268 -32.699  0.00  0.00    +0.002 C 
ATOM     95  CD1 ILE A  13      -7.314  -6.162 -34.024  0.00  0.00    +0.000 C 
ENDBRANCH  92  94
ENDBRANCH  89  92
ENDBRANCH  86  89
ENDBRANCH  84  85
BRANCH  84  96
ATOM     96  CB  LYS A  12      -3.209  -3.476 -29.052  0.00  0.00    +0.029 C 
BRANCH  96  97
ATOM     97  CG  LYS A  12      -2.184  -2.908 -30.028  0.00  0.00    +0.000 C 
BRANCH  97  98
ATOM     98  CD  LYS A  12      -0.831  -3.579 -29.898  0.00  0.00    -0.024 C 
BRANCH  98  99
ATOM     99  CE  LYS A  12       0.212  -2.814 -30.676  0.00  0.00    -0.086 C 
BRANCH  99 100
ATOM    100  NZ  LYS A  12       1.567  -3.420 -30.537  0.00  0.00    +0.380 N 
ATOM    101  HZ1 LYS A  12       1.844  -3.421 -29.535  0.00  0.00    -0.089 HD
ATOM    102  HZ2 LYS A  12       1.547  -4.397 -30.893  0.00  0.00    -0.089 HD
ATOM    103  HZ3 LYS A  12       2.252  -2.864 -31.087  0.00  0.00    -0.089 HD
ENDBRANCH  99 100
ENDBRANCH  98  99
ENDBRANCH  97  98
ENDBRANCH  96  97
ENDBRANCH  84  96
ENDBRANCH  81  84
ENDBRANCH  79  80
BRANCH  79 104
ATOM    104  CB  ASP A  11      -5.897  -1.742 -24.832  0.00  0.00    +0.143 C 
BRANCH 104 105
ATOM    105  CG  ASP A  11      -6.466  -1.505 -23.439  0.00  0.00    +0.367 C 
ATOM    106  OD2 ASP A  11      -5.684  -1.149 -22.540  0.00  0.00    -0.246 OA
ATOM    107  OD1 ASP A  11      -7.700  -1.627 -23.262  0.00  0.00    -0.246 OA
ENDBRANCH 104 105
ENDBRANCH  79 104
ENDBRANCH  76  79
ENDBRANCH  74  75
BRANCH  74 108
ATOM    108  CB  LEU A  10      -8.501  -6.594 -25.040  0.00  0.00    +0.029 C 
BRANCH 108 109
ATOM    109  CG  LEU A  10      -8.735  -8.107 -24.930  0.00  0.00    +0.002 C 
ATOM    110  CD2 LEU A  10      -9.202  -8.471 -23.558  0.00  0.00    +0.000 C 
ATOM    111  CD1 LEU A  10      -9.720  -8.612 -25.969  0.00  0.00    +0.000 C 
ENDBRANCH 108 109
ENDBRANCH  74 108
ENDBRANCH  71  74
ENDBRANCH  68  70
ENDBRANCH  65  68
ENDBRANCH  63  64
BRANCH  63 112
ATOM    112  CB  ASP A   8      -1.644  -4.703 -22.983  0.00  0.00    +0.143 C 
BRANCH 112 113
ATOM    113  CG  ASP A   8      -1.260  -3.976 -21.697  0.00  0.00    +0.367 C 
ATOM    114  OD2 ASP A   8      -2.143  -3.317 -21.091  0.00  0.00    -0.246 OA
ATOM    115  OD1 ASP A   8      -0.097  -4.093 -21.283  0.00  0.00    -0.246 OA
ENDBRANCH 112 113
ENDBRANCH  63 112
ENDBRANCH  60  63
ENDBRANCH   1  59
BRANCH   1 116
ATOM    116  CB  SER A   7      -6.016  -5.867 -19.968  0.00  0.00    +0.166 C 
BRANCH 116 117
ATOM    117  OG  SER A   7      -6.790  -4.680 -19.960  0.00  0.00    -0.380 OA
ATOM    118  H   SER A   7      -6.387  -4.021 -20.579  0.00  0.00    +0.211 HD
ENDBRANCH 116 117
ENDBRANCH   1 116
TORSDOF 54
REMARK  Name = ../refined-set-2016/4o07/4o07_pocket.pdb
REMARK  249 active torsions:
REMARK  status: ('A' for Active; 'I' for Inactive)
REMARK    1  A    between atoms: _1  and  _3
REMARK    2  A    between atoms: _3  and  _4
REMARK    3  A    between atoms: _3  and  _6
REMARK    4  A    between atoms: _6  and  _7
REMARK    5  A    between atoms: _13  and  _15
REMARK    6  A    between atoms: _15  and  _16
REMARK    7  A    between atoms: _15  and  _18
REMARK    8  A    between atoms: _18  and  _19
REMARK    9  A    between atoms: _19  and  _20
REMARK   10  A    between atoms: _25  and  _27
REMARK   11  A    between atoms: _27  and  _28
REMARK   12  A    between atoms: _27  and  _30
REMARK   13  A    between atoms: _30  and  _31
REMARK   14  A    between atoms: _34  and  _36
REMARK   15  A    between atoms: _36  and  _37
REMARK   16  A    between atoms: _36  and  _39
REMARK   17  A    between atoms: _39  and  _40
REMARK   18  A    between atoms: _40  and  _41
REMARK   19  A    between atoms: _44  and  _46
REMARK   20  A    between atoms: _46  and  _47
REMARK   21  A    between atoms: _46  and  _49
REMARK   22  A    between atoms: _49  and  _50
REMARK   23  A    between atoms: _53  and  _55
REMARK   24  A    between atoms: _55  and  _56
REMARK   25  A    between atoms: _55  and  _58
REMARK   26  A    between atoms: _58  and  _59
REMARK   27  A    between atoms: _62  and  _64
REMARK   28  A    between atoms: _64  and  _65
REMARK   29  A    between atoms: _64  and  _67
REMARK   30  A    between atoms: _67  and  _68
REMARK   31  A    between atoms: _70  and  _72
REMARK   32  A    between atoms: _72  and  _73
REMARK   33  A    between atoms: _72  and  _75
REMARK   34  A    between atoms: _75  and  _76
REMARK   35  A    between atoms: _81  and  _83
REMARK   36  A    between atoms: _83  and  _84
REMARK   37  A    between atoms: _83  and  _86
REMARK   38  A    between atoms: _86  and  _87
REMARK   39  A    between atoms: _89  and  _91
REMARK   40  A    between atoms: _91  and  _92
REMARK   41  A    between atoms: _91  and  _94
REMARK   42  A    between atoms: _94  and  _95
REMARK   43  A    between atoms: _97  and  _99
REMARK   44  A    between atoms: _99  and  _100
REMARK   45  A    between atoms: _99  and  _102
REMARK   46  A    between atoms: _102  and  _103
REMARK   47  A    between atoms: _106  and  _108
REMARK   48  A    between atoms: _108  and  _109
REMARK   49  A    between atoms: _112  and  _114
REMARK   50  A    between atoms: _114  and  _115
REMARK   51  A    between atoms: _114  and  _117
REMARK   52  A    between atoms: _117  and  _118
REMARK   53  A    between atoms: _121  and  _123
REMARK   54  A    between atoms: _123  and  _124
REMARK   55  A    between atoms: _123  and  _126
REMARK   56  A    between atoms: _126  and  _127
REMARK   57  A    between atoms: _130  and  _132
REMARK   58  A    between atoms: _132  and  _133
REMARK   59  A    between atoms: _132  and  _135
REMARK   60  A    between atoms: _135  and  _136
REMARK   61  A    between atoms: _136  and  _137
REMARK   62  A    between atoms: _137  and  _138
REMARK   63  A    between atoms: _138  and  _139
REMARK   64  A    between atoms: _143  and  _145
REMARK   65  A    between atoms: _145  and  _146
REMARK   66  A    between atoms: _145  and  _148
REMARK   67  A    between atoms: _148  and  _149
REMARK   68  A    between atoms: _152  and  _154
REMARK   69  A    between atoms: _154  and  _155
REMARK   70  A    between atoms: _154  and  _157
REMARK   71  A    between atoms: _157  and  _158
REMARK   72  A    between atoms: _161  and  _163
REMARK   73  A    between atoms: _163  and  _164
REMARK   74  A    between atoms: _163  and  _166
REMARK   75  A    between atoms: _169  and  _171
REMARK   76  A    between atoms: _171  and  _172
REMARK   77  A    between atoms: _171  and  _174
REMARK   78  A    between atoms: _174  and  _175
REMARK   79  A    between atoms: _178  and  _180
REMARK   80  A    between atoms: _180  and  _181
REMARK   81  A    between atoms: _180  and  _183
REMARK   82  A    between atoms: _183  and  _184
REMARK   83  A    between atoms: _187  and  _189
REMARK   84  A    between atoms: _189  and  _190
REMARK   85  A    between atoms: _192  and  _194
REMARK   86  A    between atoms: _194  and  _195
REMARK   87  A    between atoms: _194  and  _197
REMARK   88  A    between atoms: _197  and  _198
REMARK   89  A    between atoms: _201  and  _203
REMARK   90  A    between atoms: _203  and  _204
REMARK   91  A    between atoms: _206  and  _208
REMARK   92  A    between atoms: _208  and  _209
REMARK   93  A    between atoms: _208  and  _211
REMARK   94  A    between atoms: _211  and  _212
REMARK   95  A    between atoms: _212  and  _213
REMARK   96  A    between atoms: _215  and  _217
REMARK   97  A    between atoms: _217  and  _218
REMARK   98  A    between atoms: _217  and  _220
REMARK   99  A    between atoms: _220  and  _221
REMARK  100  A    between atoms: _224  and  _226
REMARK  101  A    between atoms: _226  and  _227
REMARK  102  A    between atoms: _226  and  _229
REMARK  103  A    between atoms: _229  and  _230
REMARK  104  A    between atoms: _230  and  _231
REMARK  105  A    between atoms: _231  and  _232
REMARK  106  A    between atoms: _232  and  _233
REMARK  107  A    between atoms: _237  and  _239
REMARK  108  A    between atoms: _239  and  _240
REMARK  109  A    between atoms: _243  and  _245
REMARK  110  A    between atoms: _245  and  _246
REMARK  111  A    between atoms: _245  and  _248
REMARK  112  A    between atoms: _248  and  _249
REMARK  113  A    between atoms: _252  and  _254
REMARK  114  A    between atoms: _254  and  _255
REMARK  115  A    between atoms: _254  and  _257
REMARK  116  A    between atoms: _257  and  _258
REMARK  117  A    between atoms: _261  and  _263
REMARK  118  A    between atoms: _263  and  _264
REMARK  119  A    between atoms: _263  and  _266
REMARK  120  A    between atoms: _266  and  _267
REMARK  121  A    between atoms: _270  and  _272
REMARK  122  A    between atoms: _272  and  _273
REMARK  123  A    between atoms: _272  and  _275
REMARK  124  A    between atoms: _275  and  _276
REMARK  125  A    between atoms: _281  and  _283
REMARK  126  A    between atoms: _283  and  _284
REMARK  127  A    between atoms: _283  and  _286
REMARK  128  A    between atoms: _286  and  _287
REMARK  129  A    between atoms: _292  and  _294
REMARK  130  A    between atoms: _294  and  _295
REMARK  131  A    between atoms: _294  and  _297
REMARK  132  A    between atoms: _297  and  _298
REMARK  133  A    between atoms: _301  and  _303
REMARK  134  A    between atoms: _303  and  _304
REMARK  135  A    between atoms: _306  and  _308
REMARK  136  A    between atoms: _308  and  _309
REMARK  137  A    between atoms: _308  and  _311
REMARK  138  A    between atoms: _311  and  _312
REMARK  139  A    between atoms: _315  and  _317
REMARK  140  A    between atoms: _317  and  _318
REMARK  141  A    between atoms: _317  and  _320
REMARK  142  A    between atoms: _320  and  _321
REMARK  143  A    between atoms: _324  and  _326
REMARK  144  A    between atoms: _326  and  _327
REMARK  145  A    between atoms: _330  and  _332
REMARK  146  A    between atoms: _332  and  _333
REMARK  147  A    between atoms: _332  and  _335
REMARK  148  A    between atoms: _335  and  _336
REMARK  149  A    between atoms: _336  and  _337
REMARK  150  A    between atoms: _337  and  _338
REMARK  151  A    between atoms: _338  and  _339
REMARK  152  A    between atoms: _343  and  _345
REMARK  153  A    between atoms: _345  and  _346
REMARK  154  A    between atoms: _348  and  _350
REMARK  155  A    between atoms: _350  and  _351
REMARK  156  A    between atoms: _350  and  _353
REMARK  157  A    between atoms: _353  and  _354
REMARK  158  A    between atoms: _357  and  _359
REMARK  159  A    between atoms: _359  and  _360
REMARK  160  A    between atoms: _362  and  _364
REMARK  161  A    between atoms: _364  and  _365
REMARK  162  A    between atoms: _364  and  _367
REMARK  163  A    between atoms: _367  and  _368
REMARK  164  A    between atoms: _374  and  _376
REMARK  165  A    between atoms: _376  and  _377
REMARK  166  A    between atoms: _379  and  _381
REMARK  167  A    between atoms: _381  and  _382
REMARK  168  A    between atoms: _381  and  _384
REMARK  169  A    between atoms: _387  and  _389
REMARK  170  A    between atoms: _389  and  _390
REMARK  171  A    between atoms: _392  and  _394
REMARK  172  A    between atoms: _394  and  _395
REMARK  173  A    between atoms: _394  and  _397
REMARK  174  A    between atoms: _397  and  _398
REMARK  175  A    between atoms: _404  and  _406
REMARK  176  A    between atoms: _406  and  _407
REMARK  177  A    between atoms: _406  and  _409
REMARK  178  A    between atoms: _409  and  _410
REMARK  179  A    between atoms: _415  and  _416
REMARK  180  A    between atoms: _418  and  _420
REMARK  181  A    between atoms: _420  and  _421
REMARK  182  A    between atoms: _420  and  _423
REMARK  183  A    between atoms: _423  and  _424
REMARK  184  A    between atoms: _429  and  _430
REMARK  185  A    between atoms: _432  and  _434
REMARK  186  A    between atoms: _434  and  _435
REMARK  187  A    between atoms: _434  and  _437
REMARK  188  A    between atoms: _440  and  _442
REMARK  189  A    between atoms: _442  and  _443
REMARK  190  A    between atoms: _442  and  _445
REMARK  191  A    between atoms: _445  and  _446
REMARK  192  A    between atoms: _449  and  _451
REMARK  193  A    between atoms: _451  and  _452
REMARK  194  A    between atoms: _451  and  _454
REMARK  195  A    between atoms: _457  and  _459
REMARK  196  A    between atoms: _459  and  _460
REMARK  197  A    between atoms: _459  and  _462
REMARK  198  A    between atoms: _462  and  _463
REMARK  199  A    between atoms: _466  and  _468
REMARK  200  A    between atoms: _468  and  _469
REMARK  201  A    between atoms: _468  and  _471
REMARK  202  A    between atoms: _471  and  _472
REMARK  203  A    between atoms: _475  and  _477
REMARK  204  A    between atoms: _477  and  _478
REMARK  205  A    between atoms: _477  and  _480
REMARK  206  A    between atoms: _480  and  _481
REMARK  207  A    between atoms: _481  and  _482
REMARK  208  A    between atoms: _482  and  _483
REMARK  209  A    between atoms: _483  and  _484
REMARK  210  A    between atoms: _488  and  _490
REMARK  211  A    between atoms: _490  and  _491
REMARK  212  A    between atoms: _490  and  _493
REMARK  213  A    between atoms: _493  and  _494
REMARK  214  A    between atoms: _504  and  _506
REMARK  215  A    between atoms: _506  and  _507
REMARK  216  A    between atoms: _506  and  _509
REMARK  217  A    between atoms: _509  and  _510
REMARK  218  A    between atoms: _510  and  _511
REMARK  219  A    between atoms: _514  and  _516
REMARK  220  A    between atoms: _516  and  _517
REMARK  221  A    between atoms: _516  and  _519
REMARK  222  A    between atoms: _519  and  _520
REMARK  223  A    between atoms: _522  and  _524
REMARK  224  A    between atoms: _524  and  _525
REMARK  225  A    between atoms: _524  and  _527
REMARK  226  A    between atoms: _527  and  _528
REMARK  227  A    between atoms: _534  and  _536
REMARK  228  A    between atoms: _536  and  _537
REMARK  229  A    between atoms: _536  and  _539
REMARK  230  A    between atoms: _539  and  _540
REMARK  231  A    between atoms: _543  and  _545
REMARK  232  A    between atoms: _545  and  _546
REMARK  233  A    between atoms: _545  and  _548
REMARK  234  A    between atoms: _551  and  _553
REMARK  235  A    between atoms: _553  and  _554
REMARK  236  A    between atoms: _556  and  _558
REMARK  237  A    between atoms: _558  and  _559
REMARK  238  A    between atoms: _558  and  _561
REMARK  239  A    between atoms: _561  and  _562
REMARK  240  A    between atoms: _565  and  _567
REMARK  241  A    between atoms: _567  and  _568
REMARK  242  A    between atoms: _567  and  _570
REMARK  243  A    between atoms: _570  and  _571
REMARK  244  A    between atoms: _571  and  _572
REMARK  245  A    between atoms: _572  and  _573
REMARK  246  A    between atoms: _573  and  _574
REMARK  247  A    between atoms: _578  and  _580
REMARK  248  A    between atoms: _580  and  _581
REMARK  249  A    between atoms: _580  and  _583
REMARK                            x       y       z     vdW  Elec       q    Type
REMARK                         _______ _______ _______ _____ _____    ______ ____
ROOT
ATOM      1  CA  ASP A  12       6.554 -10.665 -32.251  0.00  0.00    +0.160 C 
ENDROOT
BRANCH   1   4
ATOM      2  C   ALA A  11       8.085 -11.225 -34.156  0.00  0.00    +0.241 C 
ATOM      3  O   ALA A  11       9.106 -11.061 -33.488  0.00  0.00    -0.273 OA
ATOM      4  N   ASP A  12       6.830 -11.051 -33.650  0.00  0.00    -0.297 N 
ATOM      5  H   ASP A  12       6.021 -11.199 -34.286  0.00  0.00    +0.150 HD
BRANCH   2   6
ATOM      6  CA  ALA A  11       8.219 -11.693 -35.627  0.00  0.00    +0.149 C 
ATOM      7  CB  ALA A  11       8.156 -10.515 -36.587  0.00  0.00    +0.031 C 
BRANCH   6  10
ATOM      8  C   LYS A  10       7.050 -13.917 -35.348  0.00  0.00    +0.241 C 
ATOM      9  O   LYS A  10       7.763 -14.306 -34.417  0.00  0.00    -0.273 OA
ATOM     10  N   ALA A  11       7.191 -12.699 -35.962  0.00  0.00    -0.297 N 
ATOM     11  H   ALA A  11       6.522 -12.465 -36.723  0.00  0.00    +0.150 HD
BRANCH   8  12
ATOM     12  CA  LYS A  10       5.883 -14.819 -35.825  0.00  0.00    +0.149 C 
BRANCH  12  15
ATOM     13  C   THR A   9       4.116 -13.299 -34.979  0.00  0.00    +0.243 C 
ATOM     14  O   THR A   9       4.537 -13.342 -33.811  0.00  0.00    -0.273 OA
ATOM     15  N   LYS A  10       4.693 -13.978 -35.993  0.00  0.00    -0.297 N 
ATOM     16  H   LYS A  10       4.273 -13.901 -36.941  0.00  0.00    +0.150 HD
BRANCH  13  17
ATOM     17  CA  THR A   9       2.903 -12.412 -35.331  0.00  0.00    +0.176 C 
BRANCH  17  20
ATOM     18  C   MET A   8       1.551 -12.652 -33.259  0.00  0.00    +0.241 C 
ATOM     19  O   MET A   8       1.150 -13.792 -33.533  0.00  0.00    -0.273 OA
ATOM     20  N   THR A   9       2.355 -11.928 -34.052  0.00  0.00    -0.295 N 
ATOM     21  H   THR A   9       2.607 -10.967 -33.745  0.00  0.00    +0.150 HD
BRANCH  18  22
ATOM     22  CA  MET A   8       1.137 -11.989 -31.969  0.00  0.00    +0.149 C 
BRANCH  22  25
ATOM     23  C   GLY A   7      -1.138 -11.257 -31.416  0.00  0.00    +0.243 C 
ATOM     24  O   GLY A   7      -0.808 -10.060 -31.396  0.00  0.00    -0.273 OA
ATOM     25  N   MET A   8      -0.273 -12.239 -31.684  0.00  0.00    -0.297 N 
ATOM     26  H   MET A   8      -0.617 -13.220 -31.690  0.00  0.00    +0.150 HD
BRANCH  23  27
ATOM     27  CA  GLY A   7      -2.565 -11.678 -31.115  0.00  0.00    +0.176 C 
BRANCH  27  29
ATOM     28  C   ILE A   6      -3.821  -9.662 -31.705  0.00  0.00    +0.241 C 
ATOM     29  N   GLY A   7      -3.364 -10.505 -30.774  0.00  0.00    -0.295 N 
ATOM     30  H   GLY A   7      -3.585 -10.319 -29.775  0.00  0.00    +0.150 HD
ATOM     31  O   ILE A   6      -3.639  -9.824 -32.909  0.00  0.00    -0.273 OA
BRANCH  28  32
ATOM     32  CA  ILE A   6      -4.590  -8.394 -31.230  0.00  0.00    +0.149 C 
BRANCH  32  34
ATOM     33  C   GLY A   5      -6.281  -9.458 -29.743  0.00  0.00    +0.243 C 
ATOM     34  N   ILE A   6      -5.299  -8.572 -29.963  0.00  0.00    -0.297 N 
ATOM     35  H   ILE A   6      -5.019  -7.962 -29.169  0.00  0.00    +0.150 HD
ATOM     36  O   GLY A   5      -6.672 -10.264 -30.596  0.00  0.00    -0.273 OA
BRANCH  33  37
ATOM     37  CA  GLY A   5      -6.888  -9.434 -28.356  0.00  0.00    +0.176 C 
BRANCH  37  39
ATOM     38  C   THR A   4      -8.918 -10.832 -28.605  0.00  0.00    +0.243 C 
ATOM     39  N   GLY A   5      -7.705 -10.614 -28.079  0.00  0.00    -0.295 N 
ATOM     40  H   GLY A   5      -7.320 -11.331 -27.432  0.00  0.00    +0.150 HD
ATOM     41  O   THR A   4      -9.474 -10.042 -29.372  0.00  0.00    -0.273 OA
BRANCH  38  42
ATOM     42  CA  THR A   4      -9.594 -12.154 -28.190  0.00  0.00    +0.176 C 
BRANCH  42  44
ATOM     43  C   ASP A   3      -8.396 -13.373 -26.391  0.00  0.00    +0.241 C 
ATOM     44  N   THR A   4      -9.254 -12.425 -26.785  0.00  0.00    -0.295 N 
ATOM     45  H   THR A   4      -9.709 -11.844 -26.052  0.00  0.00    +0.150 HD
ATOM     46  O   ASP A   3      -7.823 -14.150 -27.169  0.00  0.00    -0.273 OA
BRANCH  43  47
ATOM     47  CA  ASP A   3      -8.118 -13.459 -24.892  0.00  0.00    +0.160 C 
BRANCH  47  50
ATOM     48  C   VAL A   2      -8.213 -15.516 -23.553  0.00  0.00    +0.241 C 
ATOM     49  O   VAL A   2      -9.035 -15.053 -22.764  0.00  0.00    -0.273 OA
ATOM     50  N   ASP A   3      -7.702 -14.824 -24.576  0.00  0.00    -0.297 N 
ATOM     51  H   ASP A   3      -6.979 -15.275 -25.172  0.00  0.00    +0.150 HD
BRANCH  48  52
ATOM     52  CA  VAL A   2      -7.776 -16.969 -23.416  0.00  0.00    +0.148 C 
BRANCH  52  54
ATOM     53  C   ILE A   1      -6.149 -17.478 -21.625  0.00  0.00    +0.238 C 
ATOM     54  N   VAL A   2      -7.406 -17.236 -22.021  0.00  0.00    -0.297 N 
ATOM     55  H   VAL A   2      -8.158 -17.237 -21.303  0.00  0.00    +0.150 HD
ATOM     56  O   ILE A   1      -5.180 -17.493 -22.392  0.00  0.00    -0.274 OA
BRANCH  53  57
ATOM     57  CA  ILE A   1      -5.948 -17.743 -20.133  0.00  0.00    +0.145 C 
BRANCH  57  58
ATOM     58  CB  ILE A   1      -5.023 -16.677 -19.432  0.00  0.00    +0.025 C 
ATOM     59  CG2 ILE A   1      -5.621 -15.270 -19.555  0.00  0.00    +0.002 C 
BRANCH  58  60
ATOM     60  CG1 ILE A   1      -4.773 -16.996 -17.934  0.00  0.00    +0.002 C 
ATOM     61  CD1 ILE A   1      -3.501 -17.647 -17.639  0.00  0.00    +0.000 C 
ENDBRANCH  58  60
ENDBRANCH  57  58
BRANCH  57  62
ATOM     62  N   ILE A   1      -5.481 -19.130 -20.069  0.00  0.00    -0.238 NA
ATOM     63  H   ILE A   1      -4.540 -19.341 -20.460  0.00  0.00    +0.142 HD
ENDBRANCH  57  62
ENDBRANCH  53  57
ENDBRANCH  52  54
BRANCH  52  64
ATOM     64  CB  VAL A   2      -8.922 -17.912 -23.938  0.00  0.00    +0.027 C 
ATOM     65  CG2 VAL A   2      -8.615 -19.385 -23.686  0.00  0.00    +0.002 C 
ATOM     66  CG1 VAL A   2      -9.210 -17.676 -25.428  0.00  0.00    +0.002 C 
ENDBRANCH  52  64
ENDBRANCH  48  52
ENDBRANCH  47  50
BRANCH  47  67
ATOM     67  CB  ASP A   3      -7.108 -12.391 -24.403  0.00  0.00    +0.143 C 
BRANCH  67  68
ATOM     68  CG  ASP A   3      -5.792 -12.331 -25.155  0.00  0.00    +0.367 C 
ATOM     69  OD2 ASP A   3      -4.749 -12.633 -24.545  0.00  0.00    -0.246 OA
ATOM     70  OD1 ASP A   3      -5.807 -11.946 -26.349  0.00  0.00    -0.246 OA
ENDBRANCH  67  68
ENDBRANCH  47  67
ENDBRANCH  43  47
ENDBRANCH  42  44
BRANCH  42  71
ATOM     71  CB  THR A   4     -11.109 -12.211 -28.419  0.00  0.00    +0.137 C 
ATOM     72  CG2 THR A   4     -11.671 -13.637 -28.340  0.00  0.00    +0.034 C 
BRANCH  71  73
ATOM     73  OG1 THR A   4     -11.745 -11.351 -27.464  0.00  0.00    -0.382 OA
ATOM     74  HG1 THR A   4     -12.725 -11.377 -27.600  0.00  0.00    +0.210 HD
ENDBRANCH  71  73
ENDBRANCH  42  71
ENDBRANCH  38  42
ENDBRANCH  37  39
ENDBRANCH  33  37
ENDBRANCH  32  34
BRANCH  32  75
ATOM     75  CB  ILE A   6      -3.659  -7.130 -31.158  0.00  0.00    +0.027 C 
ATOM     76  CG2 ILE A   6      -2.489  -7.278 -30.133  0.00  0.00    +0.002 C 
BRANCH  75  77
ATOM     77  CG1 ILE A   6      -3.159  -6.713 -32.571  0.00  0.00    +0.002 C 
ATOM     78  CD1 ILE A   6      -3.131  -5.263 -32.847  0.00  0.00    +0.000 C 
ENDBRANCH  75  77
ENDBRANCH  32  75
ENDBRANCH  28  32
ENDBRANCH  27  29
ENDBRANCH  23  27
ENDBRANCH  22  25
BRANCH  22  79
ATOM     79  CB  MET A   8       2.032 -12.494 -30.808  0.00  0.00    +0.041 C 
BRANCH  79  80
ATOM     80  CG  MET A   8       1.913 -11.656 -29.540  0.00  0.00    +0.060 C 
BRANCH  80  81
ATOM     81  SD  MET A   8       2.583 -12.492 -28.085  0.00  0.00    -0.139 S 
ATOM     82  CE  MET A   8       1.245 -13.559 -27.661  0.00  0.00    +0.069 C 
ENDBRANCH  80  81
ENDBRANCH  79  80
ENDBRANCH  22  79
ENDBRANCH  18  22
ENDBRANCH  17  20
BRANCH  17  83
ATOM     83  CB  THR A   9       3.365 -11.234 -36.224  0.00  0.00    +0.137 C 
ATOM     84  CG2 THR A   9       2.231 -10.288 -36.631  0.00  0.00    +0.034 C 
BRANCH  83  85
ATOM     85  OG1 THR A   9       4.405 -10.517 -35.557  0.00  0.00    -0.382 OA
ATOM     86  HG1 THR A   9       4.702  -9.763 -36.126  0.00  0.00    +0.210 HD
ENDBRANCH  83  85
ENDBRANCH  17  83
ENDBRANCH  13  17
ENDBRANCH  12  15
BRANCH  12  87
ATOM     87  CB  LYS A  10       6.240 -15.534 -37.139  0.00  0.00    +0.029 C 
BRANCH  87  88
ATOM     88  CG  LYS A  10       7.046 -16.811 -36.905  0.00  0.00    +0.000 C 
BRANCH  88  89
ATOM     89  CD  LYS A  10       7.612 -17.401 -38.189  0.00  0.00    -0.024 C 
BRANCH  89  90
ATOM     90  CE  LYS A  10       8.482 -18.600 -37.894  0.00  0.00    -0.086 C 
BRANCH  90  91
ATOM     91  NZ  LYS A  10       9.205 -19.076 -39.104  0.00  0.00    +0.380 N 
ATOM     92  HZ1 LYS A  10       9.790 -19.900 -38.856  0.00  0.00    -0.089 HD
ATOM     93  HZ2 LYS A  10       9.813 -18.314 -39.465  0.00  0.00    -0.089 HD
ATOM     94  HZ3 LYS A  10       8.516 -19.346 -39.834  0.00  0.00    -0.089 HD
ENDBRANCH  90  91
ENDBRANCH  89  90
ENDBRANCH  88  89
ENDBRANCH  87  88
ENDBRANCH  12  87
ENDBRANCH   8  12
ENDBRANCH   6  10
ENDBRANCH   2   6
ENDBRANCH   1   4
BRANCH   1  95
ATOM     95  C   ASP A  12       7.082 -11.751 -31.283  0.00  0.00    +0.241 C 
ATOM     96  O   ASP A  12       7.785 -11.427 -30.322  0.00  0.00    -0.273 OA
ATOM     97  N   LEU A  13       6.746 -13.034 -31.559  0.00  0.00    -0.297 N 
ATOM     98  H   LEU A  13       6.168 -13.205 -32.406  0.00  0.00    +0.150 HD
BRANCH  97  99
ATOM     99  CA  LEU A  13       7.132 -14.203 -30.759  0.00  0.00    +0.149 C 
BRANCH  99 100
ATOM    100  C   LEU A  13       8.626 -14.467 -30.678  0.00  0.00    +0.241 C 
ATOM    101  O   LEU A  13       9.112 -14.838 -29.607  0.00  0.00    -0.273 OA
ATOM    102  N   ILE A  14       9.341 -14.306 -31.806  0.00  0.00    -0.297 N 
ATOM    103  H   ILE A  14       8.847 -13.963 -32.654  0.00  0.00    +0.150 HD
BRANCH 102 104
ATOM    104  CA  ILE A  14      10.775 -14.586 -31.909  0.00  0.00    +0.149 C 
BRANCH 104 105
ATOM    105  C   ILE A  14      11.656 -13.378 -31.608  0.00  0.00    +0.241 C 
ATOM    106  O   ILE A  14      12.597 -13.525 -30.823  0.00  0.00    -0.273 OA
ATOM    107  N   ASN A  15      11.375 -12.211 -32.236  0.00  0.00    -0.297 N 
ATOM    108  H   ASN A  15      10.525 -12.161 -32.833  0.00  0.00    +0.150 HD
BRANCH 107 109
ATOM    109  CA  ASN A  15      12.214 -11.014 -32.113  0.00  0.00    +0.158 C 
BRANCH 109 110
ATOM    110  C   ASN A  15      11.701  -9.822 -31.289  0.00  0.00    +0.241 C 
ATOM    111  O   ASN A  15      12.334  -9.488 -30.290  0.00  0.00    -0.273 OA
ATOM    112  N   ASN A  16      10.615  -9.159 -31.750  0.00  0.00    -0.297 N 
ATOM    113  H   ASN A  16      10.139  -9.588 -32.569  0.00  0.00    +0.150 HD
BRANCH 112 114
ATOM    114  CA  ASN A  16      10.021  -7.917 -31.249  0.00  0.00    +0.158 C 
BRANCH 114 115
ATOM    115  C   ASN A  16       9.812  -7.834 -29.730  0.00  0.00    +0.241 C 
ATOM    116  N   LEU A  17       9.033  -8.754 -29.124  0.00  0.00    -0.297 N 
ATOM    117  H   LEU A  17       8.621  -9.519 -29.696  0.00  0.00    +0.150 HD
ATOM    118  O   ASN A  16      10.365  -6.912 -29.126  0.00  0.00    -0.273 OA
BRANCH 116 119
ATOM    119  CA  LEU A  17       8.748  -8.711 -27.682  0.00  0.00    +0.149 C 
BRANCH 119 120
ATOM    120  C   LEU A  17       9.978  -8.982 -26.817  0.00  0.00    +0.241 C 
ATOM    121  O   LEU A  17      10.142  -8.308 -25.799  0.00  0.00    -0.273 OA
ATOM    122  N   GLY A  18      10.828  -9.911 -27.255  0.00  0.00    -0.295 N 
ATOM    123  H   GLY A  18      10.578 -10.414 -28.131  0.00  0.00    +0.150 HD
BRANCH 122 124
ATOM    124  CA  GLY A  18      12.083 -10.279 -26.602  0.00  0.00    +0.176 C 
BRANCH 124 125
ATOM    125  C   GLY A  18      13.047  -9.105 -26.555  0.00  0.00    +0.243 C 
ATOM    126  O   GLY A  18      13.676  -8.873 -25.520  0.00  0.00    -0.273 OA
ATOM    127  N   THR A  19      13.141  -8.337 -27.677  0.00  0.00    -0.295 N 
ATOM    128  H   THR A  19      12.567  -8.627 -28.494  0.00  0.00    +0.150 HD
BRANCH 127 129
ATOM    129  CA  THR A  19      13.980  -7.131 -27.846  0.00  0.00    +0.176 C 
BRANCH 129 130
ATOM    130  C   THR A  19      13.500  -6.041 -26.879  0.00  0.00    +0.243 C 
ATOM    131  O   THR A  19      14.327  -5.432 -26.202  0.00  0.00    -0.273 OA
ATOM    132  N   ILE A  20      12.164  -5.824 -26.809  0.00  0.00    -0.297 N 
ATOM    133  H   ILE A  20      11.558  -6.395 -27.432  0.00  0.00    +0.150 HD
BRANCH 132 134
ATOM    134  CA  ILE A  20      11.497  -4.856 -25.934  0.00  0.00    +0.149 C 
BRANCH 134 135
ATOM    135  C   ILE A  20      11.742  -5.208 -24.464  0.00  0.00    +0.241 C 
ATOM    136  O   ILE A  20      12.064  -4.313 -23.681  0.00  0.00    -0.273 OA
ATOM    137  N   ALA A  21      11.615  -6.507 -24.120  0.00  0.00    -0.297 N 
ATOM    138  H   ALA A  21      11.362  -7.173 -24.877  0.00  0.00    +0.150 HD
BRANCH 137 139
ATOM    139  CA  ALA A  21      11.801  -7.064 -22.780  0.00  0.00    +0.149 C 
ATOM    140  CB  ALA A  21      11.331  -8.509 -22.739  0.00  0.00    +0.031 C 
BRANCH 139 141
ATOM    141  C   ALA A  21      13.231  -6.952 -22.228  0.00  0.00    +0.241 C 
ATOM    142  O   ALA A  21      13.369  -6.932 -21.006  0.00  0.00    -0.273 OA
ATOM    143  N   LYS A  22      14.277  -6.868 -23.110  0.00  0.00    -0.298 N 
ATOM    144  H   LYS A  22      14.041  -6.874 -24.123  0.00  0.00    +0.150 HD
BRANCH 143 145
ATOM    145  CA  LYS A  22      15.709  -6.770 -22.755  0.00  0.00    +0.137 C 
BRANCH 145 146
ATOM    146  C   LYS A  22      16.000  -5.638 -21.742  0.00  0.00    +0.227 C 
ATOM    147  O   LYS A  22      16.538  -5.946 -20.674  0.00  0.00    -0.286 OA
ENDBRANCH 145 146
BRANCH 145 148
ATOM    148  CB  LYS A  22      16.604  -6.673 -24.012  0.00  0.00    +0.028 C 
BRANCH 148 149
ATOM    149  CG  LYS A  22      18.066  -7.041 -23.769  0.00  0.00    -0.000 C 
BRANCH 149 150
ATOM    150  CD  LYS A  22      18.888  -7.001 -25.053  0.00  0.00    -0.024 C 
BRANCH 150 151
ATOM    151  CE  LYS A  22      20.351  -7.262 -24.783  0.00  0.00    -0.086 C 
BRANCH 151 152
ATOM    152  NZ  LYS A  22      21.152  -7.271 -26.036  0.00  0.00    +0.380 N 
ATOM    153  HZ1 LYS A  22      22.150  -7.453 -25.807  0.00  0.00    -0.089 HD
ATOM    154  HZ2 LYS A  22      21.066  -6.348 -26.507  0.00  0.00    -0.089 HD
ATOM    155  HZ3 LYS A  22      20.798  -8.018 -26.667  0.00  0.00    -0.089 HD
ENDBRANCH 151 152
ENDBRANCH 150 151
ENDBRANCH 149 150
ENDBRANCH 148 149
ENDBRANCH 145 148
ENDBRANCH 143 145
ENDBRANCH 139 141
ENDBRANCH 137 139
ENDBRANCH 134 135
BRANCH 134 156
ATOM    156  CB  ILE A  20       9.988  -4.732 -26.342  0.00  0.00    +0.027 C 
ATOM    157  CG2 ILE A  20       9.024  -4.281 -25.231  0.00  0.00    +0.002 C 
BRANCH 156 158
ATOM    158  CG1 ILE A  20       9.812  -3.869 -27.621  0.00  0.00    +0.002 C 
ATOM    159  CD1 ILE A  20      10.455  -2.449 -27.749  0.00  0.00    +0.000 C 
ENDBRANCH 156 158
ENDBRANCH 134 156
ENDBRANCH 132 134
ENDBRANCH 129 130
BRANCH 129 160
ATOM    160  CB  THR A  19      13.990  -6.691 -29.329  0.00  0.00    +0.137 C 
ATOM    161  CG2 THR A  19      14.814  -5.431 -29.583  0.00  0.00    +0.034 C 
BRANCH 160 162
ATOM    162  OG1 THR A  19      14.521  -7.764 -30.104  0.00  0.00    -0.382 OA
ATOM    163  HG1 THR A  19      13.952  -8.566 -29.989  0.00  0.00    +0.210 HD
ENDBRANCH 160 162
ENDBRANCH 129 160
ENDBRANCH 127 129
ENDBRANCH 124 125
ENDBRANCH 122 124
ENDBRANCH 119 120
BRANCH 119 164
ATOM    164  CB  LEU A  17       7.569  -9.619 -27.316  0.00  0.00    +0.029 C 
BRANCH 164 165
ATOM    165  CG  LEU A  17       6.206  -9.105 -27.851  0.00  0.00    +0.002 C 
ATOM    166  CD2 LEU A  17       5.675  -7.912 -27.052  0.00  0.00    +0.000 C 
ATOM    167  CD1 LEU A  17       5.208 -10.177 -27.865  0.00  0.00    +0.000 C 
ENDBRANCH 164 165
ENDBRANCH 119 164
ENDBRANCH 116 119
ENDBRANCH 114 115
BRANCH 114 168
ATOM    168  CB  ASN A  16       8.705  -7.591 -31.979  0.00  0.00    +0.114 C 
BRANCH 168 169
ATOM    169  CG  ASN A  16       8.796  -7.468 -33.499  0.00  0.00    +0.222 C 
ATOM    170  OD1 ASN A  16       9.871  -7.286 -34.094  0.00  0.00    -0.275 OA
ATOM    171  ND2 ASN A  16       7.646  -7.546 -34.165  0.00  0.00    -0.329 N 
ATOM    172 HD21 ASN A  16       6.756  -7.699 -33.649  0.00  0.00    +0.145 HD
ATOM    173 HD22 ASN A  16       7.638  -7.454 -35.201  0.00  0.00    +0.145 HD
ENDBRANCH 168 169
ENDBRANCH 114 168
ENDBRANCH 112 114
ENDBRANCH 109 110
BRANCH 109 174
ATOM    174  CB  ASN A  15      12.554 -10.471 -33.522  0.00  0.00    +0.114 C 
BRANCH 174 175
ATOM    175  CG  ASN A  15      13.083 -11.483 -34.506  0.00  0.00    +0.222 C 
ATOM    176  OD1 ASN A  15      14.175 -12.017 -34.342  0.00  0.00    -0.275 OA
ATOM    177  ND2 ASN A  15      12.318 -11.756 -35.557  0.00  0.00    -0.329 N 
ATOM    178 HD21 ASN A  15      11.397 -11.285 -35.666  0.00  0.00    +0.145 HD
ATOM    179 HD22 ASN A  15      12.640 -12.440 -36.271  0.00  0.00    +0.145 HD
ENDBRANCH 174 175
ENDBRANCH 109 174
ENDBRANCH 107 109
ENDBRANCH 104 105
BRANCH 104 180
ATOM    180  CB  ILE A  14      11.119 -15.220 -33.306  0.00  0.00    +0.027 C 
ATOM    181  CG2 ILE A  14      12.650 -15.403 -33.517  0.00  0.00    +0.002 C 
BRANCH 180 182
ATOM    182  CG1 ILE A  14      10.360 -16.554 -33.528  0.00  0.00    +0.002 C 
ATOM    183  CD1 ILE A  14      10.229 -16.975 -35.002  0.00  0.00    +0.000 C 
ENDBRANCH 180 182
ENDBRANCH 104 180
ENDBRANCH 102 104
ENDBRANCH  99 100
BRANCH  99 184
ATOM    184  CB  LEU A  13       6.438 -15.486 -31.264  0.00  0.00    +0.029 C 
BRANCH 184 185
ATOM    185  CG  LEU A  13       4.925 -15.619 -31.080  0.00  0.00    +0.002 C 
ATOM    186  CD2 LEU A  13       4.521 -15.707 -29.592  0.00  0.00    +0.000 C 
ATOM    187  CD1 LEU A  13       4.427 -16.830 -31.811  0.00  0.00    +0.000 C 
ENDBRANCH 184 185
ENDBRANCH  99 184
ENDBRANCH  97  99
ENDBRANCH   1  95
BRANCH   1 188
ATOM    188  CB  ASP A  12       5.040 -10.471 -32.006  0.00  0.00    +0.143 C 
BRANCH 188 189
ATOM    189  CG  ASP A  12       4.363  -9.277 -32.660  0.00  0.00    +0.367 C 
ATOM    190  OD2 ASP A  12       3.138  -9.336 -32.863  0.00  0.00    -0.246 OA
ATOM    191  OD1 ASP A  12       5.062  -8.278 -32.962  0.00  0.00    -0.246 OA
ENDBRANCH 188 189
ENDBRANCH   1 188
TORSDOF 84
REMARK  Name = ../refined-set-2016/4o07/4o07_pocket.pdb
REMARK  249 active torsions:
REMARK  status: ('A' for Active; 'I' for Inactive)
REMARK    1  A    between atoms: _1  and  _3
REMARK    2  A    between atoms: _3  and  _4
REMARK    3  A    between atoms: _3  and  _6
REMARK    4  A    between atoms: _6  and  _7
REMARK    5  A    between atoms: _13  and  _15
REMARK    6  A    between atoms: _15  and  _16
REMARK    7  A    between atoms: _15  and  _18
REMARK    8  A    between atoms: _18  and  _19
REMARK    9  A    between atoms: _19  and  _20
REMARK   10  A    between atoms: _25  and  _27
REMARK   11  A    between atoms: _27  and  _28
REMARK   12  A    between atoms: _27  and  _30
REMARK   13  A    between atoms: _30  and  _31
REMARK   14  A    between atoms: _34  and  _36
REMARK   15  A    between atoms: _36  and  _37
REMARK   16  A    between atoms: _36  and  _39
REMARK   17  A    between atoms: _39  and  _40
REMARK   18  A    between atoms: _40  and  _41
REMARK   19  A    between atoms: _44  and  _46
REMARK   20  A    between atoms: _46  and  _47
REMARK   21  A    between atoms: _46  and  _49
REMARK   22  A    between atoms: _49  and  _50
REMARK   23  A    between atoms: _53  and  _55
REMARK   24  A    between atoms: _55  and  _56
REMARK   25  A    between atoms: _55  and  _58
REMARK   26  A    between atoms: _58  and  _59
REMARK   27  A    between atoms: _62  and  _64
REMARK   28  A    between atoms: _64  and  _65
REMARK   29  A    between atoms: _64  and  _67
REMARK   30  A    between atoms: _67  and  _68
REMARK   31  A    between atoms: _70  and  _72
REMARK   32  A    between atoms: _72  and  _73
REMARK   33  A    between atoms: _72  and  _75
REMARK   34  A    between atoms: _75  and  _76
REMARK   35  A    between atoms: _81  and  _83
REMARK   36  A    between atoms: _83  and  _84
REMARK   37  A    between atoms: _83  and  _86
REMARK   38  A    between atoms: _86  and  _87
REMARK   39  A    between atoms: _89  and  _91
REMARK   40  A    between atoms: _91  and  _92
REMARK   41  A    between atoms: _91  and  _94
REMARK   42  A    between atoms: _94  and  _95
REMARK   43  A    between atoms: _97  and  _99
REMARK   44  A    between atoms: _99  and  _100
REMARK   45  A    between atoms: _99  and  _102
REMARK   46  A    between atoms: _102  and  _103
REMARK   47  A    between atoms: _106  and  _108
REMARK   48  A    between atoms: _108  and  _109
REMARK   49  A    between atoms: _112  and  _114
REMARK   50  A    between atoms: _114  and  _115
REMARK   51  A    between atoms: _114  and  _117
REMARK   52  A    between atoms: _117  and  _118
REMARK   53  A    between atoms: _121  and  _123
REMARK   54  A    between atoms: _123  and  _124
REMARK   55  A    between atoms: _123  and  _126
REMARK   56  A    between atoms: _126  and  _127
REMARK   57  A    between atoms: _130  and  _132
REMARK   58  A    between atoms: _132  and  _133
REMARK   59  A    between atoms: _132  and  _135
REMARK   60  A    between atoms: _135  and  _136
REMARK   61  A    between atoms: _136  and  _137
REMARK   62  A    between atoms: _137  and  _138
REMARK   63  A    between atoms: _138  and  _139
REMARK   64  A    between atoms: _143  and  _145
REMARK   65  A    between atoms: _145  and  _146
REMARK   66  A    between atoms: _145  and  _148
REMARK   67  A    between atoms: _148  and  _149
REMARK   68  A    between atoms: _152  and  _154
REMARK   69  A    between atoms: _154  and  _155
REMARK   70  A    between atoms: _154  and  _157
REMARK   71  A    between atoms: _157  and  _158
REMARK   72  A    between atoms: _161  and  _163
REMARK   73  A    between atoms: _163  and  _164
REMARK   74  A    between atoms: _163  and  _166
REMARK   75  A    between atoms: _169  and  _171
REMARK   76  A    between atoms: _171  and  _172
REMARK   77  A    between atoms: _171  and  _174
REMARK   78  A    between atoms: _174  and  _175
REMARK   79  A    between atoms: _178  and  _180
REMARK   80  A    between atoms: _180  and  _181
REMARK   81  A    between atoms: _180  and  _183
REMARK   82  A    between atoms: _183  and  _184
REMARK   83  A    between atoms: _187  and  _189
REMARK   84  A    between atoms: _189  and  _190
REMARK   85  A    between atoms: _192  and  _194
REMARK   86  A    between atoms: _194  and  _195
REMARK   87  A    between atoms: _194  and  _197
REMARK   88  A    between atoms: _197  and  _198
REMARK   89  A    between atoms: _201  and  _203
REMARK   90  A    between atoms: _203  and  _204
REMARK   91  A    between atoms: _206  and  _208
REMARK   92  A    between atoms: _208  and  _209
REMARK   93  A    between atoms: _208  and  _211
REMARK   94  A    between atoms: _211  and  _212
REMARK   95  A    between atoms: _212  and  _213
REMARK   96  A    between atoms: _215  and  _217
REMARK   97  A    between atoms: _217  and  _218
REMARK   98  A    between atoms: _217  and  _220
REMARK   99  A    between atoms: _220  and  _221
REMARK  100  A    between atoms: _224  and  _226
REMARK  101  A    between atoms: _226  and  _227
REMARK  102  A    between atoms: _226  and  _229
REMARK  103  A    between atoms: _229  and  _230
REMARK  104  A    between atoms: _230  and  _231
REMARK  105  A    between atoms: _231  and  _232
REMARK  106  A    between atoms: _232  and  _233
REMARK  107  A    between atoms: _237  and  _239
REMARK  108  A    between atoms: _239  and  _240
REMARK  109  A    between atoms: _243  and  _245
REMARK  110  A    between atoms: _245  and  _246
REMARK  111  A    between atoms: _245  and  _248
REMARK  112  A    between atoms: _248  and  _249
REMARK  113  A    between atoms: _252  and  _254
REMARK  114  A    between atoms: _254  and  _255
REMARK  115  A    between atoms: _254  and  _257
REMARK  116  A    between atoms: _257  and  _258
REMARK  117  A    between atoms: _261  and  _263
REMARK  118  A    between atoms: _263  and  _264
REMARK  119  A    between atoms: _263  and  _266
REMARK  120  A    between atoms: _266  and  _267
REMARK  121  A    between atoms: _270  and  _272
REMARK  122  A    between atoms: _272  and  _273
REMARK  123  A    between atoms: _272  and  _275
REMARK  124  A    between atoms: _275  and  _276
REMARK  125  A    between atoms: _281  and  _283
REMARK  126  A    between atoms: _283  and  _284
REMARK  127  A    between atoms: _283  and  _286
REMARK  128  A    between atoms: _286  and  _287
REMARK  129  A    between atoms: _292  and  _294
REMARK  130  A    between atoms: _294  and  _295
REMARK  131  A    between atoms: _294  and  _297
REMARK  132  A    between atoms: _297  and  _298
REMARK  133  A    between atoms: _301  and  _303
REMARK  134  A    between atoms: _303  and  _304
REMARK  135  A    between atoms: _306  and  _308
REMARK  136  A    between atoms: _308  and  _309
REMARK  137  A    between atoms: _308  and  _311
REMARK  138  A    between atoms: _311  and  _312
REMARK  139  A    between atoms: _315  and  _317
REMARK  140  A    between atoms: _317  and  _318
REMARK  141  A    between atoms: _317  and  _320
REMARK  142  A    between atoms: _320  and  _321
REMARK  143  A    between atoms: _324  and  _326
REMARK  144  A    between atoms: _326  and  _327
REMARK  145  A    between atoms: _330  and  _332
REMARK  146  A    between atoms: _332  and  _333
REMARK  147  A    between atoms: _332  and  _335
REMARK  148  A    between atoms: _335  and  _336
REMARK  149  A    between atoms: _336  and  _337
REMARK  150  A    between atoms: _337  and  _338
REMARK  151  A    between atoms: _338  and  _339
REMARK  152  A    between atoms: _343  and  _345
REMARK  153  A    between atoms: _345  and  _346
REMARK  154  A    between atoms: _348  and  _350
REMARK  155  A    between atoms: _350  and  _351
REMARK  156  A    between atoms: _350  and  _353
REMARK  157  A    between atoms: _353  and  _354
REMARK  158  A    between atoms: _357  and  _359
REMARK  159  A    between atoms: _359  and  _360
REMARK  160  A    between atoms: _362  and  _364
REMARK  161  A    between atoms: _364  and  _365
REMARK  162  A    between atoms: _364  and  _367
REMARK  163  A    between atoms: _367  and  _368
REMARK  164  A    between atoms: _374  and  _376
REMARK  165  A    between atoms: _376  and  _377
REMARK  166  A    between atoms: _379  and  _381
REMARK  167  A    between atoms: _381  and  _382
REMARK  168  A    between atoms: _381  and  _384
REMARK  169  A    between atoms: _387  and  _389
REMARK  170  A    between atoms: _389  and  _390
REMARK  171  A    between atoms: _392  and  _394
REMARK  172  A    between atoms: _394  and  _395
REMARK  173  A    between atoms: _394  and  _397
REMARK  174  A    between atoms: _397  and  _398
REMARK  175  A    between atoms: _404  and  _406
REMARK  176  A    between atoms: _406  and  _407
REMARK  177  A    between atoms: _406  and  _409
REMARK  178  A    between atoms: _409  and  _410
REMARK  179  A    between atoms: _415  and  _416
REMARK  180  A    between atoms: _418  and  _420
REMARK  181  A    between atoms: _420  and  _421
REMARK  182  A    between atoms: _420  and  _423
REMARK  183  A    between atoms: _423  and  _424
REMARK  184  A    between atoms: _429  and  _430
REMARK  185  A    between atoms: _432  and  _434
REMARK  186  A    between atoms: _434  and  _435
REMARK  187  A    between atoms: _434  and  _437
REMARK  188  A    between atoms: _440  and  _442
REMARK  189  A    between atoms: _442  and  _443
REMARK  190  A    between atoms: _442  and  _445
REMARK  191  A    between atoms: _445  and  _446
REMARK  192  A    between atoms: _449  and  _451
REMARK  193  A    between atoms: _451  and  _452
REMARK  194  A    between atoms: _451  and  _454
REMARK  195  A    between atoms: _457  and  _459
REMARK  196  A    between atoms: _459  and  _460
REMARK  197  A    between atoms: _459  and  _462
REMARK  198  A    between atoms: _462  and  _463
REMARK  199  A    between atoms: _466  and  _468
REMARK  200  A    between atoms: _468  and  _469
REMARK  201  A    between atoms: _468  and  _471
REMARK  202  A    between atoms: _471  and  _472
REMARK  203  A    between atoms: _475  and  _477
REMARK  204  A    between atoms: _477  and  _478
REMARK  205  A    between atoms: _477  and  _480
REMARK  206  A    between atoms: _480  and  _481
REMARK  207  A    between atoms: _481  and  _482
REMARK  208  A    between atoms: _482  and  _483
REMARK  209  A    between atoms: _483  and  _484
REMARK  210  A    between atoms: _488  and  _490
REMARK  211  A    between atoms: _490  and  _491
REMARK  212  A    between atoms: _490  and  _493
REMARK  213  A    between atoms: _493  and  _494
REMARK  214  A    between atoms: _504  and  _506
REMARK  215  A    between atoms: _506  and  _507
REMARK  216  A    between atoms: _506  and  _509
REMARK  217  A    between atoms: _509  and  _510
REMARK  218  A    between atoms: _510  and  _511
REMARK  219  A    between atoms: _514  and  _516
REMARK  220  A    between atoms: _516  and  _517
REMARK  221  A    between atoms: _516  and  _519
REMARK  222  A    between atoms: _519  and  _520
REMARK  223  A    between atoms: _522  and  _524
REMARK  224  A    between atoms: _524  and  _525
REMARK  225  A    between atoms: _524  and  _527
REMARK  226  A    between atoms: _527  and  _528
REMARK  227  A    between atoms: _534  and  _536
REMARK  228  A    between atoms: _536  and  _537
REMARK  229  A    between atoms: _536  and  _539
REMARK  230  A    between atoms: _539  and  _540
REMARK  231  A    between atoms: _543  and  _545
REMARK  232  A    between atoms: _545  and  _546
REMARK  233  A    between atoms: _545  and  _548
REMARK  234  A    between atoms: _551  and  _553
REMARK  235  A    between atoms: _553  and  _554
REMARK  236  A    between atoms: _556  and  _558
REMARK  237  A    between atoms: _558  and  _559
REMARK  238  A    between atoms: _558  and  _561
REMARK  239  A    between atoms: _561  and  _562
REMARK  240  A    between atoms: _565  and  _567
REMARK  241  A    between atoms: _567  and  _568
REMARK  242  A    between atoms: _567  and  _570
REMARK  243  A    between atoms: _570  and  _571
REMARK  244  A    between atoms: _571  and  _572
REMARK  245  A    between atoms: _572  and  _573
REMARK  246  A    between atoms: _573  and  _574
REMARK  247  A    between atoms: _578  and  _580
REMARK  248  A    between atoms: _580  and  _581
REMARK  249  A    between atoms: _580  and  _583
REMARK                            x       y       z     vdW  Elec       q    Type
REMARK                         _______ _______ _______ _____ _____    ______ ____
ROOT
ATOM      1  C   GLY A   1      13.537  -5.102 -17.770  0.00  0.00    +0.240 C 
ATOM      2  O   GLY A   1      13.522  -4.912 -16.554  0.00  0.00    -0.274 OA
ATOM      3  N   THR A   2      14.051  -6.207 -18.345  0.00  0.00    -0.296 N 
ATOM      4  H   THR A   2      14.010  -6.263 -19.383  0.00  0.00    +0.150 HD
ENDROOT
BRANCH   1   5
ATOM      5  CA  GLY A   1      12.983  -4.049 -18.710  0.00  0.00    +0.169 C 
BRANCH   5   6
ATOM      6  N   GLY A   1      13.829  -3.818 -19.881  0.00  0.00    -0.236 NA
ATOM      7  H   GLY A   1      13.429  -4.021 -20.819  0.00  0.00    +0.142 HD
ENDBRANCH   5   6
ENDBRANCH   1   5
BRANCH   3   8
ATOM      8  CA  THR A   2      14.666  -7.343 -17.636  0.00  0.00    +0.164 C 
BRANCH   8   9
ATOM      9  C   THR A   2      15.908  -6.871 -16.854  0.00  0.00    +0.229 C 
ATOM     10  O   THR A   2      16.013  -7.171 -15.662  0.00  0.00    -0.286 OA
ENDBRANCH   8   9
BRANCH   8  11
ATOM     11  CB  THR A   2      14.943  -8.489 -18.624  0.00  0.00    +0.136 C 
ATOM     12  CG2 THR A   2      15.665  -9.616 -18.009  0.00  0.00    +0.034 C 
BRANCH  11  13
ATOM     13  OG1 THR A   2      13.696  -8.977 -19.108  0.00  0.00    -0.382 OA
ATOM     14  HG1 THR A   2      13.211  -8.245 -19.565  0.00  0.00    +0.210 HD
ENDBRANCH  11  13
ENDBRANCH   8  11
ENDBRANCH   3   8
TORSDOF 6
REMARK  Name = ../refined-set-2016/4o07/4o07_pocket.pdb
REMARK  249 active torsions:
REMARK  status: ('A' for Active; 'I' for Inactive)
REMARK    1  A    between atoms: _1  and  _3
REMARK    2  A    between atoms: _3  and  _4
REMARK    3  A    between atoms: _3  and  _6
REMARK    4  A    between atoms: _6  and  _7
REMARK    5  A    between atoms: _13  and  _15
REMARK    6  A    between atoms: _15  and  _16
REMARK    7  A    between atoms: _15  and  _18
REMARK    8  A    between atoms: _18  and  _19
REMARK    9  A    between atoms: _19  and  _20
REMARK   10  A    between atoms: _25  and  _27
REMARK   11  A    between atoms: _27  and  _28
REMARK   12  A    between atoms: _27  and  _30
REMARK   13  A    between atoms: _30  and  _31
REMARK   14  A    between atoms: _34  and  _36
REMARK   15  A    between atoms: _36  and  _37
REMARK   16  A    between atoms: _36  and  _39
REMARK   17  A    between atoms: _39  and  _40
REMARK   18  A    between atoms: _40  and  _41
REMARK   19  A    between atoms: _44  and  _46
REMARK   20  A    between atoms: _46  and  _47
REMARK   21  A    between atoms: _46  and  _49
REMARK   22  A    between atoms: _49  and  _50
REMARK   23  A    between atoms: _53  and  _55
REMARK   24  A    between atoms: _55  and  _56
REMARK   25  A    between atoms: _55  and  _58
REMARK   26  A    between atoms: _58  and  _59
REMARK   27  A    between atoms: _62  and  _64
REMARK   28  A    between atoms: _64  and  _65
REMARK   29  A    between atoms: _64  and  _67
REMARK   30  A    between atoms: _67  and  _68
REMARK   31  A    between atoms: _70  and  _72
REMARK   32  A    between atoms: _72  and  _73
REMARK   33  A    between atoms: _72  and  _75
REMARK   34  A    between atoms: _75  and  _76
REMARK   35  A    between atoms: _81  and  _83
REMARK   36  A    between atoms: _83  and  _84
REMARK   37  A    between atoms: _83  and  _86
REMARK   38  A    between atoms: _86  and  _87
REMARK   39  A    between atoms: _89  and  _91
REMARK   40  A    between atoms: _91  and  _92
REMARK   41  A    between atoms: _91  and  _94
REMARK   42  A    between atoms: _94  and  _95
REMARK   43  A    between atoms: _97  and  _99
REMARK   44  A    between atoms: _99  and  _100
REMARK   45  A    between atoms: _99  and  _102
REMARK   46  A    between atoms: _102  and  _103
REMARK   47  A    between atoms: _106  and  _108
REMARK   48  A    between atoms: _108  and  _109
REMARK   49  A    between atoms: _112  and  _114
REMARK   50  A    between atoms: _114  and  _115
REMARK   51  A    between atoms: _114  and  _117
REMARK   52  A    between atoms: _117  and  _118
REMARK   53  A    between atoms: _121  and  _123
REMARK   54  A    between atoms: _123  and  _124
REMARK   55  A    between atoms: _123  and  _126
REMARK   56  A    between atoms: _126  and  _127
REMARK   57  A    between atoms: _130  and  _132
REMARK   58  A    between atoms: _132  and  _133
REMARK   59  A    between atoms: _132  and  _135
REMARK   60  A    between atoms: _135  and  _136
REMARK   61  A    between atoms: _136  and  _137
REMARK   62  A    between atoms: _137  and  _138
REMARK   63  A    between atoms: _138  and  _139
REMARK   64  A    between atoms: _143  and  _145
REMARK   65  A    between atoms: _145  and  _146
REMARK   66  A    between atoms: _145  and  _148
REMARK   67  A    between atoms: _148  and  _149
REMARK   68  A    between atoms: _152  and  _154
REMARK   69  A    between atoms: _154  and  _155
REMARK   70  A    between atoms: _154  and  _157
REMARK   71  A    between atoms: _157  and  _158
REMARK   72  A    between atoms: _161  and  _163
REMARK   73  A    between atoms: _163  and  _164
REMARK   74  A    between atoms: _163  and  _166
REMARK   75  A    between atoms: _169  and  _171
REMARK   76  A    between atoms: _171  and  _172
REMARK   77  A    between atoms: _171  and  _174
REMARK   78  A    between atoms: _174  and  _175
REMARK   79  A    between atoms: _178  and  _180
REMARK   80  A    between atoms: _180  and  _181
REMARK   81  A    between atoms: _180  and  _183
REMARK   82  A    between atoms: _183  and  _184
REMARK   83  A    between atoms: _187  and  _189
REMARK   84  A    between atoms: _189  and  _190
REMARK   85  A    between atoms: _192  and  _194
REMARK   86  A    between atoms: _194  and  _195
REMARK   87  A    between atoms: _194  and  _197
REMARK   88  A    between atoms: _197  and  _198
REMARK   89  A    between atoms: _201  and  _203
REMARK   90  A    between atoms: _203  and  _204
REMARK   91  A    between atoms: _206  and  _208
REMARK   92  A    between atoms: _208  and  _209
REMARK   93  A    between atoms: _208  and  _211
REMARK   94  A    between atoms: _211  and  _212
REMARK   95  A    between atoms: _212  and  _213
REMARK   96  A    between atoms: _215  and  _217
REMARK   97  A    between atoms: _217  and  _218
REMARK   98  A    between atoms: _217  and  _220
REMARK   99  A    between atoms: _220  and  _221
REMARK  100  A    between atoms: _224  and  _226
REMARK  101  A    between atoms: _226  and  _227
REMARK  102  A    between atoms: _226  and  _229
REMARK  103  A    between atoms: _229  and  _230
REMARK  104  A    between atoms: _230  and  _231
REMARK  105  A    between atoms: _231  and  _232
REMARK  106  A    between atoms: _232  and  _233
REMARK  107  A    between atoms: _237  and  _239
REMARK  108  A    between atoms: _239  and  _240
REMARK  109  A    between atoms: _243  and  _245
REMARK  110  A    between atoms: _245  and  _246
REMARK  111  A    between atoms: _245  and  _248
REMARK  112  A    between atoms: _248  and  _249
REMARK  113  A    between atoms: _252  and  _254
REMARK  114  A    between atoms: _254  and  _255
REMARK  115  A    between atoms: _254  and  _257
REMARK  116  A    between atoms: _257  and  _258
REMARK  117  A    between atoms: _261  and  _263
REMARK  118  A    between atoms: _263  and  _264
REMARK  119  A    between atoms: _263  and  _266
REMARK  120  A    between atoms: _266  and  _267
REMARK  121  A    between atoms: _270  and  _272
REMARK  122  A    between atoms: _272  and  _273
REMARK  123  A    between atoms: _272  and  _275
REMARK  124  A    between atoms: _275  and  _276
REMARK  125  A    between atoms: _281  and  _283
REMARK  126  A    between atoms: _283  and  _284
REMARK  127  A    between atoms: _283  and  _286
REMARK  128  A    between atoms: _286  and  _287
REMARK  129  A    between atoms: _292  and  _294
REMARK  130  A    between atoms: _294  and  _295
REMARK  131  A    between atoms: _294  and  _297
REMARK  132  A    between atoms: _297  and  _298
REMARK  133  A    between atoms: _301  and  _303
REMARK  134  A    between atoms: _303  and  _304
REMARK  135  A    between atoms: _306  and  _308
REMARK  136  A    between atoms: _308  and  _309
REMARK  137  A    between atoms: _308  and  _311
REMARK  138  A    between atoms: _311  and  _312
REMARK  139  A    between atoms: _315  and  _317
REMARK  140  A    between atoms: _317  and  _318
REMARK  141  A    between atoms: _317  and  _320
REMARK  142  A    between atoms: _320  and  _321
REMARK  143  A    between atoms: _324  and  _326
REMARK  144  A    between atoms: _326  and  _327
REMARK  145  A    between atoms: _330  and  _332
REMARK  146  A    between atoms: _332  and  _333
REMARK  147  A    between atoms: _332  and  _335
REMARK  148  A    between atoms: _335  and  _336
REMARK  149  A    between atoms: _336  and  _337
REMARK  150  A    between atoms: _337  and  _338
REMARK  151  A    between atoms: _338  and  _339
REMARK  152  A    between atoms: _343  and  _345
REMARK  153  A    between atoms: _345  and  _346
REMARK  154  A    between atoms: _348  and  _350
REMARK  155  A    between atoms: _350  and  _351
REMARK  156  A    between atoms: _350  and  _353
REMARK  157  A    between atoms: _353  and  _354
REMARK  158  A    between atoms: _357  and  _359
REMARK  159  A    between atoms: _359  and  _360
REMARK  160  A    between atoms: _362  and  _364
REMARK  161  A    between atoms: _364  and  _365
REMARK  162  A    between atoms: _364  and  _367
REMARK  163  A    between atoms: _367  and  _368
REMARK  164  A    between atoms: _374  and  _376
REMARK  165  A    between atoms: _376  and  _377
REMARK  166  A    between atoms: _379  and  _381
REMARK  167  A    between atoms: _381  and  _382
REMARK  168  A    between atoms: _381  and  _384
REMARK  169  A    between atoms: _387  and  _389
REMARK  170  A    between atoms: _389  and  _390
REMARK  171  A    between atoms: _392  and  _394
REMARK  172  A    between atoms: _394  and  _395
REMARK  173  A    between atoms: _394  and  _397
REMARK  174  A    between atoms: _397  and  _398
REMARK  175  A    between atoms: _404  and  _406
REMARK  176  A    between atoms: _406  and  _407
REMARK  177  A    between atoms: _406  and  _409
REMARK  178  A    between atoms: _409  and  _410
REMARK  179  A    between atoms: _415  and  _416
REMARK  180  A    between atoms: _418  and  _420
REMARK  181  A    between atoms: _420  and  _421
REMARK  182  A    between atoms: _420  and  _423
REMARK  183  A    between atoms: _423  and  _424
REMARK  184  A    between atoms: _429  and  _430
REMARK  185  A    between atoms: _432  and  _434
REMARK  186  A    between atoms: _434  and  _435
REMARK  187  A    between atoms: _434  and  _437
REMARK  188  A    between atoms: _440  and  _442
REMARK  189  A    between atoms: _442  and  _443
REMARK  190  A    between atoms: _442  and  _445
REMARK  191  A    between atoms: _445  and  _446
REMARK  192  A    between atoms: _449  and  _451
REMARK  193  A    between atoms: _451  and  _452
REMARK  194  A    between atoms: _451  and  _454
REMARK  195  A    between atoms: _457  and  _459
REMARK  196  A    between atoms: _459  and  _460
REMARK  197  A    between atoms: _459  and  _462
REMARK  198  A    between atoms: _462  and  _463
REMARK  199  A    between atoms: _466  and  _468
REMARK  200  A    between atoms: _468  and  _469
REMARK  201  A    between atoms: _468  and  _471
REMARK  202  A    between atoms: _471  and  _472
REMARK  203  A    between atoms: _475  and  _477
REMARK  204  A    between atoms: _477  and  _478
REMARK  205  A    between atoms: _477  and  _480
REMARK  206  A    between atoms: _480  and  _481
REMARK  207  A    between atoms: _481  and  _482
REMARK  208  A    between atoms: _482  and  _483
REMARK  209  A    between atoms: _483  and  _484
REMARK  210  A    between atoms: _488  and  _490
REMARK  211  A    between atoms: _490  and  _491
REMARK  212  A    between atoms: _490  and  _493
REMARK  213  A    between atoms: _493  and  _494
REMARK  214  A    between atoms: _504  and  _506
REMARK  215  A    between atoms: _506  and  _507
REMARK  216  A    between atoms: _506  and  _509
REMARK  217  A    between atoms: _509  and  _510
REMARK  218  A    between atoms: _510  and  _511
REMARK  219  A    between atoms: _514  and  _516
REMARK  220  A    between atoms: _516  and  _517
REMARK  221  A    between atoms: _516  and  _519
REMARK  222  A    between atoms: _519  and  _520
REMARK  223  A    between atoms: _522  and  _524
REMARK  224  A    between atoms: _524  and  _525
REMARK  225  A    between atoms: _524  and  _527
REMARK  226  A    between atoms: _527  and  _528
REMARK  227  A    between atoms: _534  and  _536
REMARK  228  A    between atoms: _536  and  _537
REMARK  229  A    between atoms: _536  and  _539
REMARK  230  A    between atoms: _539  and  _540
REMARK  231  A    between atoms: _543  and  _545
REMARK  232  A    between atoms: _545  and  _546
REMARK  233  A    between atoms: _545  and  _548
REMARK  234  A    between atoms: _551  and  _553
REMARK  235  A    between atoms: _553  and  _554
REMARK  236  A    between atoms: _556  and  _558
REMARK  237  A    between atoms: _558  and  _559
REMARK  238  A    between atoms: _558  and  _561
REMARK  239  A    between atoms: _561  and  _562
REMARK  240  A    between atoms: _565  and  _567
REMARK  241  A    between atoms: _567  and  _568
REMARK  242  A    between atoms: _567  and  _570
REMARK  243  A    between atoms: _570  and  _571
REMARK  244  A    between atoms: _571  and  _572
REMARK  245  A    between atoms: _572  and  _573
REMARK  246  A    between atoms: _573  and  _574
REMARK  247  A    between atoms: _578  and  _580
REMARK  248  A    between atoms: _580  and  _581
REMARK  249  A    between atoms: _580  and  _583
REMARK                            x       y       z     vdW  Elec       q    Type
REMARK                         _______ _______ _______ _____ _____    ______ ____
ROOT
ATOM      1  CA  GLY A   1       4.919  -5.469 -14.095  0.00  0.00    +0.156 C 
ENDROOT
BRANCH   1   2
ATOM      2  N   GLY A   1       5.774  -6.209 -13.163  0.00  0.00    -0.238 NA
ATOM      3  H   GLY A   1       5.336  -6.549 -12.283  0.00  0.00    +0.142 HD
ENDBRANCH   1   2
BRANCH   1   4
ATOM      4  C   GLY A   1       5.367  -4.054 -14.395  0.00  0.00    +0.226 C 
ATOM      5  O   GLY A   1       5.216  -3.594 -15.530  0.00  0.00    -0.287 OA
ENDBRANCH   1   4
TORSDOF 2
REMARK  Name = ../refined-set-2016/4o07/4o07_pocket.pdb
REMARK  249 active torsions:
REMARK  status: ('A' for Active; 'I' for Inactive)
REMARK    1  A    between atoms: _1  and  _3
REMARK    2  A    between atoms: _3  and  _4
REMARK    3  A    between atoms: _3  and  _6
REMARK    4  A    between atoms: _6  and  _7
REMARK    5  A    between atoms: _13  and  _15
REMARK    6  A    between atoms: _15  and  _16
REMARK    7  A    between atoms: _15  and  _18
REMARK    8  A    between atoms: _18  and  _19
REMARK    9  A    between atoms: _19  and  _20
REMARK   10  A    between atoms: _25  and  _27
REMARK   11  A    between atoms: _27  and  _28
REMARK   12  A    between atoms: _27  and  _30
REMARK   13  A    between atoms: _30  and  _31
REMARK   14  A    between atoms: _34  and  _36
REMARK   15  A    between atoms: _36  and  _37
REMARK   16  A    between atoms: _36  and  _39
REMARK   17  A    between atoms: _39  and  _40
REMARK   18  A    between atoms: _40  and  _41
REMARK   19  A    between atoms: _44  and  _46
REMARK   20  A    between atoms: _46  and  _47
REMARK   21  A    between atoms: _46  and  _49
REMARK   22  A    between atoms: _49  and  _50
REMARK   23  A    between atoms: _53  and  _55
REMARK   24  A    between atoms: _55  and  _56
REMARK   25  A    between atoms: _55  and  _58
REMARK   26  A    between atoms: _58  and  _59
REMARK   27  A    between atoms: _62  and  _64
REMARK   28  A    between atoms: _64  and  _65
REMARK   29  A    between atoms: _64  and  _67
REMARK   30  A    between atoms: _67  and  _68
REMARK   31  A    between atoms: _70  and  _72
REMARK   32  A    between atoms: _72  and  _73
REMARK   33  A    between atoms: _72  and  _75
REMARK   34  A    between atoms: _75  and  _76
REMARK   35  A    between atoms: _81  and  _83
REMARK   36  A    between atoms: _83  and  _84
REMARK   37  A    between atoms: _83  and  _86
REMARK   38  A    between atoms: _86  and  _87
REMARK   39  A    between atoms: _89  and  _91
REMARK   40  A    between atoms: _91  and  _92
REMARK   41  A    between atoms: _91  and  _94
REMARK   42  A    between atoms: _94  and  _95
REMARK   43  A    between atoms: _97  and  _99
REMARK   44  A    between atoms: _99  and  _100
REMARK   45  A    between atoms: _99  and  _102
REMARK   46  A    between atoms: _102  and  _103
REMARK   47  A    between atoms: _106  and  _108
REMARK   48  A    between atoms: _108  and  _109
REMARK   49  A    between atoms: _112  and  _114
REMARK   50  A    between atoms: _114  and  _115
REMARK   51  A    between atoms: _114  and  _117
REMARK   52  A    between atoms: _117  and  _118
REMARK   53  A    between atoms: _121  and  _123
REMARK   54  A    between atoms: _123  and  _124
REMARK   55  A    between atoms: _123  and  _126
REMARK   56  A    between atoms: _126  and  _127
REMARK   57  A    between atoms: _130  and  _132
REMARK   58  A    between atoms: _132  and  _133
REMARK   59  A    between atoms: _132  and  _135
REMARK   60  A    between atoms: _135  and  _136
REMARK   61  A    between atoms: _136  and  _137
REMARK   62  A    between atoms: _137  and  _138
REMARK   63  A    between atoms: _138  and  _139
REMARK   64  A    between atoms: _143  and  _145
REMARK   65  A    between atoms: _145  and  _146
REMARK   66  A    between atoms: _145  and  _148
REMARK   67  A    between atoms: _148  and  _149
REMARK   68  A    between atoms: _152  and  _154
REMARK   69  A    between atoms: _154  and  _155
REMARK   70  A    between atoms: _154  and  _157
REMARK   71  A    between atoms: _157  and  _158
REMARK   72  A    between atoms: _161  and  _163
REMARK   73  A    between atoms: _163  and  _164
REMARK   74  A    between atoms: _163  and  _166
REMARK   75  A    between atoms: _169  and  _171
REMARK   76  A    between atoms: _171  and  _172
REMARK   77  A    between atoms: _171  and  _174
REMARK   78  A    between atoms: _174  and  _175
REMARK   79  A    between atoms: _178  and  _180
REMARK   80  A    between atoms: _180  and  _181
REMARK   81  A    between atoms: _180  and  _183
REMARK   82  A    between atoms: _183  and  _184
REMARK   83  A    between atoms: _187  and  _189
REMARK   84  A    between atoms: _189  and  _190
REMARK   85  A    between atoms: _192  and  _194
REMARK   86  A    between atoms: _194  and  _195
REMARK   87  A    between atoms: _194  and  _197
REMARK   88  A    between atoms: _197  and  _198
REMARK   89  A    between atoms: _201  and  _203
REMARK   90  A    between atoms: _203  and  _204
REMARK   91  A    between atoms: _206  and  _208
REMARK   92  A    between atoms: _208  and  _209
REMARK   93  A    between atoms: _208  and  _211
REMARK   94  A    between atoms: _211  and  _212
REMARK   95  A    between atoms: _212  and  _213
REMARK   96  A    between atoms: _215  and  _217
REMARK   97  A    between atoms: _217  and  _218
REMARK   98  A    between atoms: _217  and  _220
REMARK   99  A    between atoms: _220  and  _221
REMARK  100  A    between atoms: _224  and  _226
REMARK  101  A    between atoms: _226  and  _227
REMARK  102  A    between atoms: _226  and  _229
REMARK  103  A    between atoms: _229  and  _230
REMARK  104  A    between atoms: _230  and  _231
REMARK  105  A    between atoms: _231  and  _232
REMARK  106  A    between atoms: _232  and  _233
REMARK  107  A    between atoms: _237  and  _239
REMARK  108  A    between atoms: _239  and  _240
REMARK  109  A    between atoms: _243  and  _245
REMARK  110  A    between atoms: _245  and  _246
REMARK  111  A    between atoms: _245  and  _248
REMARK  112  A    between atoms: _248  and  _249
REMARK  113  A    between atoms: _252  and  _254
REMARK  114  A    between atoms: _254  and  _255
REMARK  115  A    between atoms: _254  and  _257
REMARK  116  A    between atoms: _257  and  _258
REMARK  117  A    between atoms: _261  and  _263
REMARK  118  A    between atoms: _263  and  _264
REMARK  119  A    between atoms: _263  and  _266
REMARK  120  A    between atoms: _266  and  _267
REMARK  121  A    between atoms: _270  and  _272
REMARK  122  A    between atoms: _272  and  _273
REMARK  123  A    between atoms: _272  and  _275
REMARK  124  A    between atoms: _275  and  _276
REMARK  125  A    between atoms: _281  and  _283
REMARK  126  A    between atoms: _283  and  _284
REMARK  127  A    between atoms: _283  and  _286
REMARK  128  A    between atoms: _286  and  _287
REMARK  129  A    between atoms: _292  and  _294
REMARK  130  A    between atoms: _294  and  _295
REMARK  131  A    between atoms: _294  and  _297
REMARK  132  A    between atoms: _297  and  _298
REMARK  133  A    between atoms: _301  and  _303
REMARK  134  A    between atoms: _303  and  _304
REMARK  135  A    between atoms: _306  and  _308
REMARK  136  A    between atoms: _308  and  _309
REMARK  137  A    between atoms: _308  and  _311
REMARK  138  A    between atoms: _311  and  _312
REMARK  139  A    between atoms: _315  and  _317
REMARK  140  A    between atoms: _317  and  _318
REMARK  141  A    between atoms: _317  and  _320
REMARK  142  A    between atoms: _320  and  _321
REMARK  143  A    between atoms: _324  and  _326
REMARK  144  A    between atoms: _326  and  _327
REMARK  145  A    between atoms: _330  and  _332
REMARK  146  A    between atoms: _332  and  _333
REMARK  147  A    between atoms: _332  and  _335
REMARK  148  A    between atoms: _335  and  _336
REMARK  149  A    between atoms: _336  and  _337
REMARK  150  A    between atoms: _337  and  _338
REMARK  151  A    between atoms: _338  and  _339
REMARK  152  A    between atoms: _343  and  _345
REMARK  153  A    between atoms: _345  and  _346
REMARK  154  A    between atoms: _348  and  _350
REMARK  155  A    between atoms: _350  and  _351
REMARK  156  A    between atoms: _350  and  _353
REMARK  157  A    between atoms: _353  and  _354
REMARK  158  A    between atoms: _357  and  _359
REMARK  159  A    between atoms: _359  and  _360
REMARK  160  A    between atoms: _362  and  _364
REMARK  161  A    between atoms: _364  and  _365
REMARK  162  A    between atoms: _364  and  _367
REMARK  163  A    between atoms: _367  and  _368
REMARK  164  A    between atoms: _374  and  _376
REMARK  165  A    between atoms: _376  and  _377
REMARK  166  A    between atoms: _379  and  _381
REMARK  167  A    between atoms: _381  and  _382
REMARK  168  A    between atoms: _381  and  _384
REMARK  169  A    between atoms: _387  and  _389
REMARK  170  A    between atoms: _389  and  _390
REMARK  171  A    between atoms: _392  and  _394
REMARK  172  A    between atoms: _394  and  _395
REMARK  173  A    between atoms: _394  and  _397
REMARK  174  A    between atoms: _397  and  _398
REMARK  175  A    between atoms: _404  and  _406
REMARK  176  A    between atoms: _406  and  _407
REMARK  177  A    between atoms: _406  and  _409
REMARK  178  A    between atoms: _409  and  _410
REMARK  179  A    between atoms: _415  and  _416
REMARK  180  A    between atoms: _418  and  _420
REMARK  181  A    between atoms: _420  and  _421
REMARK  182  A    between atoms: _420  and  _423
REMARK  183  A    between atoms: _423  and  _424
REMARK  184  A    between atoms: _429  and  _430
REMARK  185  A    between atoms: _432  and  _434
REMARK  186  A    between atoms: _434  and  _435
REMARK  187  A    between atoms: _434  and  _437
REMARK  188  A    between atoms: _440  and  _442
REMARK  189  A    between atoms: _442  and  _443
REMARK  190  A    between atoms: _442  and  _445
REMARK  191  A    between atoms: _445  and  _446
REMARK  192  A    between atoms: _449  and  _451
REMARK  193  A    between atoms: _451  and  _452
REMARK  194  A    between atoms: _451  and  _454
REMARK  195  A    between atoms: _457  and  _459
REMARK  196  A    between atoms: _459  and  _460
REMARK  197  A    between atoms: _459  and  _462
REMARK  198  A    between atoms: _462  and  _463
REMARK  199  A    between atoms: _466  and  _468
REMARK  200  A    between atoms: _468  and  _469
REMARK  201  A    between atoms: _468  and  _471
REMARK  202  A    between atoms: _471  and  _472
REMARK  203  A    between atoms: _475  and  _477
REMARK  204  A    between atoms: _477  and  _478
REMARK  205  A    between atoms: _477  and  _480
REMARK  206  A    between atoms: _480  and  _481
REMARK  207  A    between atoms: _481  and  _482
REMARK  208  A    between atoms: _482  and  _483
REMARK  209  A    between atoms: _483  and  _484
REMARK  210  A    between atoms: _488  and  _490
REMARK  211  A    between atoms: _490  and  _491
REMARK  212  A    between atoms: _490  and  _493
REMARK  213  A    between atoms: _493  and  _494
REMARK  214  A    between atoms: _504  and  _506
REMARK  215  A    between atoms: _506  and  _507
REMARK  216  A    between atoms: _506  and  _509
REMARK  217  A    between atoms: _509  and  _510
REMARK  218  A    between atoms: _510  and  _511
REMARK  219  A    between atoms: _514  and  _516
REMARK  220  A    between atoms: _516  and  _517
REMARK  221  A    between atoms: _516  and  _519
REMARK  222  A    between atoms: _519  and  _520
REMARK  223  A    between atoms: _522  and  _524
REMARK  224  A    between atoms: _524  and  _525
REMARK  225  A    between atoms: _524  and  _527
REMARK  226  A    between atoms: _527  and  _528
REMARK  227  A    between atoms: _534  and  _536
REMARK  228  A    between atoms: _536  and  _537
REMARK  229  A    between atoms: _536  and  _539
REMARK  230  A    between atoms: _539  and  _540
REMARK  231  A    between atoms: _543  and  _545
REMARK  232  A    between atoms: _545  and  _546
REMARK  233  A    between atoms: _545  and  _548
REMARK  234  A    between atoms: _551  and  _553
REMARK  235  A    between atoms: _553  and  _554
REMARK  236  A    between atoms: _556  and  _558
REMARK  237  A    between atoms: _558  and  _559
REMARK  238  A    between atoms: _558  and  _561
REMARK  239  A    between atoms: _561  and  _562
REMARK  240  A    between atoms: _565  and  _567
REMARK  241  A    between atoms: _567  and  _568
REMARK  242  A    between atoms: _567  and  _570
REMARK  243  A    between atoms: _570  and  _571
REMARK  244  A    between atoms: _571  and  _572
REMARK  245  A    between atoms: _572  and  _573
REMARK  246  A    between atoms: _573  and  _574
REMARK  247  A    between atoms: _578  and  _580
REMARK  248  A    between atoms: _580  and  _581
REMARK  249  A    between atoms: _580  and  _583
REMARK                            x       y       z     vdW  Elec       q    Type
REMARK                         _______ _______ _______ _____ _____    ______ ____
ROOT
ATOM      1  CA  GLY A   4       5.303  -9.521 -16.154  0.00  0.00    +0.176 C 
ENDROOT
BRANCH   1   2
ATOM      2  C   GLY A   4       4.958 -10.888 -16.708  0.00  0.00    +0.243 C 
ATOM      3  O   GLY A   4       4.673 -11.793 -15.926  0.00  0.00    -0.273 OA
ATOM      4  N   PHE A   5       5.011 -11.072 -18.058  0.00  0.00    -0.297 N 
ATOM      5  H   PHE A   5       5.263 -10.262 -18.660  0.00  0.00    +0.150 HD
BRANCH   4   6
ATOM      6  CA  PHE A   5       4.727 -12.368 -18.703  0.00  0.00    +0.153 C 
BRANCH   6   7
ATOM      7  C   PHE A   5       5.512 -13.523 -18.033  0.00  0.00    +0.241 C 
ATOM      8  N   TYR A   6       6.810 -13.290 -17.746  0.00  0.00    -0.298 N 
ATOM      9  H   TYR A   6       7.183 -12.340 -17.946  0.00  0.00    +0.150 HD
ATOM     10  O   PHE A   5       4.941 -14.582 -17.779  0.00  0.00    -0.273 OA
BRANCH   8  11
ATOM     11  CA  TYR A   6       7.734 -14.272 -17.174  0.00  0.00    +0.141 C 
BRANCH  11  12
ATOM     12  C   TYR A   6       7.392 -14.696 -15.739  0.00  0.00    +0.227 C 
ATOM     13  O   TYR A   6       7.921 -15.727 -15.303  0.00  0.00    -0.286 OA
ENDBRANCH  11  12
BRANCH  11  14
ATOM     14  CB  TYR A   6       9.191 -13.798 -17.316  0.00  0.00    +0.054 C 
BRANCH  14  15
ATOM     15  CG  TYR A   6       9.578 -13.814 -18.784  0.00  0.00    -0.020 A 
ATOM     16  CD2 TYR A   6       9.852 -15.019 -19.442  0.00  0.00    -0.001 A 
ATOM     17  CE2 TYR A   6      10.135 -15.051 -20.809  0.00  0.00    +0.036 A 
ATOM     18  CZ  TYR A   6      10.141 -13.869 -21.537  0.00  0.00    +0.134 A 
ATOM     19  CE1 TYR A   6       9.873 -12.659 -20.907  0.00  0.00    +0.036 A 
ATOM     20  CD1 TYR A   6       9.578 -12.641 -19.540  0.00  0.00    -0.001 A 
BRANCH  18  21
ATOM     21  OH  TYR A   6      10.466 -13.905 -22.869  0.00  0.00    -0.506 OA
ATOM     22  HH  TYR A   6       9.722 -13.524 -23.399  0.00  0.00    +0.292 HD
ENDBRANCH  18  21
ENDBRANCH  14  15
ENDBRANCH  11  14
ENDBRANCH   8  11
ENDBRANCH   6   7
BRANCH   6  23
ATOM     23  CB  PHE A   5       5.029 -12.349 -20.237  0.00  0.00    +0.055 C 
BRANCH  23  24
ATOM     24  CG  PHE A   5       4.917 -13.734 -20.847  0.00  0.00    -0.020 A 
ATOM     25  CD2 PHE A   5       6.062 -14.511 -21.080  0.00  0.00    -0.004 A 
ATOM     26  CE2 PHE A   5       5.955 -15.820 -21.588  0.00  0.00    -0.000 A 
ATOM     27  CZ  PHE A   5       4.704 -16.355 -21.868  0.00  0.00    -0.000 A 
ATOM     28  CE1 PHE A   5       3.559 -15.608 -21.624  0.00  0.00    -0.000 A 
ATOM     29  CD1 PHE A   5       3.666 -14.300 -21.112  0.00  0.00    -0.004 A 
ENDBRANCH  23  24
ENDBRANCH   6  23
ENDBRANCH   4   6
ENDBRANCH   1   2
BRANCH   1  31
ATOM     30  C   VAL A   3       7.488  -9.183 -17.309  0.00  0.00    +0.241 C 
ATOM     31  N   GLY A   4       6.272  -8.758 -16.937  0.00  0.00    -0.295 N 
ATOM     32  H   GLY A   4       5.994  -7.800 -17.232  0.00  0.00    +0.150 HD
ATOM     33  O   VAL A   3       7.941 -10.311 -17.049  0.00  0.00    -0.273 OA
BRANCH  30  34
ATOM     34  CA  VAL A   3       8.323  -8.169 -18.142  0.00  0.00    +0.149 C 
BRANCH  34  36
ATOM     35  C   GLY A   2       7.489  -5.942 -18.886  0.00  0.00    +0.243 C 
ATOM     36  N   VAL A   3       7.867  -6.787 -17.902  0.00  0.00    -0.297 N 
ATOM     37  H   VAL A   3       7.835  -6.444 -16.921  0.00  0.00    +0.150 HD
ATOM     38  O   GLY A   2       7.498  -6.258 -20.074  0.00  0.00    -0.273 OA
BRANCH  35  39
ATOM     39  CA  GLY A   2       7.044  -4.549 -18.495  0.00  0.00    +0.176 C 
BRANCH  39  41
ATOM     40  C   PHE A   1       8.966  -3.742 -17.138  0.00  0.00    +0.239 C 
ATOM     41  N   GLY A   2       7.664  -4.010 -17.288  0.00  0.00    -0.296 N 
ATOM     42  H   GLY A   2       7.041  -3.818 -16.477  0.00  0.00    +0.150 HD
ATOM     43  O   PHE A   1       9.808  -3.913 -18.019  0.00  0.00    -0.274 OA
BRANCH  40  44
ATOM     44  CA  PHE A   1       9.384  -3.157 -15.781  0.00  0.00    +0.149 C 
BRANCH  44  45
ATOM     45  N   PHE A   1       8.257  -3.016 -14.860  0.00  0.00    -0.238 NA
ATOM     46  H   PHE A   1       7.881  -3.892 -14.445  0.00  0.00    +0.142 HD
ENDBRANCH  44  45
BRANCH  44  47
ATOM     47  CB  PHE A   1      10.517  -3.966 -15.100  0.00  0.00    +0.053 C 
BRANCH  47  48
ATOM     48  CG  PHE A   1      10.987  -3.324 -13.812  0.00  0.00    -0.020 A 
ATOM     49  CD2 PHE A   1      10.396  -3.658 -12.590  0.00  0.00    -0.004 A 
ATOM     50  CE2 PHE A   1      10.810  -3.050 -11.398  0.00  0.00    -0.000 A 
ATOM     51  CZ  PHE A   1      11.818  -2.107 -11.423  0.00  0.00    -0.000 A 
ATOM     52  CE1 PHE A   1      12.419  -1.755 -12.621  0.00  0.00    -0.000 A 
ATOM     53  CD1 PHE A   1      11.998  -2.360 -13.821  0.00  0.00    -0.004 A 
ENDBRANCH  47  48
ENDBRANCH  44  47
ENDBRANCH  40  44
ENDBRANCH  39  41
ENDBRANCH  35  39
ENDBRANCH  34  36
BRANCH  34  54
ATOM     54  CB  VAL A   3       9.870  -8.362 -17.984  0.00  0.00    +0.027 C 
ATOM     55  CG2 VAL A   3      10.375  -7.974 -16.585  0.00  0.00    +0.002 C 
ATOM     56  CG1 VAL A   3      10.628  -7.611 -19.072  0.00  0.00    +0.002 C 
ENDBRANCH  34  54
ENDBRANCH  30  34
ENDBRANCH   1  31
TORSDOF 20
REMARK  Name = ../refined-set-2016/4o07/4o07_pocket.pdb
REMARK  249 active torsions:
REMARK  status: ('A' for Active; 'I' for Inactive)
REMARK    1  A    between atoms: _1  and  _3
REMARK    2  A    between atoms: _3  and  _4
REMARK    3  A    between atoms: _3  and  _6
REMARK    4  A    between atoms: _6  and  _7
REMARK    5  A    between atoms: _13  and  _15
REMARK    6  A    between atoms: _15  and  _16
REMARK    7  A    between atoms: _15  and  _18
REMARK    8  A    between atoms: _18  and  _19
REMARK    9  A    between atoms: _19  and  _20
REMARK   10  A    between atoms: _25  and  _27
REMARK   11  A    between atoms: _27  and  _28
REMARK   12  A    between atoms: _27  and  _30
REMARK   13  A    between atoms: _30  and  _31
REMARK   14  A    between atoms: _34  and  _36
REMARK   15  A    between atoms: _36  and  _37
REMARK   16  A    between atoms: _36  and  _39
REMARK   17  A    between atoms: _39  and  _40
REMARK   18  A    between atoms: _40  and  _41
REMARK   19  A    between atoms: _44  and  _46
REMARK   20  A    between atoms: _46  and  _47
REMARK   21  A    between atoms: _46  and  _49
REMARK   22  A    between atoms: _49  and  _50
REMARK   23  A    between atoms: _53  and  _55
REMARK   24  A    between atoms: _55  and  _56
REMARK   25  A    between atoms: _55  and  _58
REMARK   26  A    between atoms: _58  and  _59
REMARK   27  A    between atoms: _62  and  _64
REMARK   28  A    between atoms: _64  and  _65
REMARK   29  A    between atoms: _64  and  _67
REMARK   30  A    between atoms: _67  and  _68
REMARK   31  A    between atoms: _70  and  _72
REMARK   32  A    between atoms: _72  and  _73
REMARK   33  A    between atoms: _72  and  _75
REMARK   34  A    between atoms: _75  and  _76
REMARK   35  A    between atoms: _81  and  _83
REMARK   36  A    between atoms: _83  and  _84
REMARK   37  A    between atoms: _83  and  _86
REMARK   38  A    between atoms: _86  and  _87
REMARK   39  A    between atoms: _89  and  _91
REMARK   40  A    between atoms: _91  and  _92
REMARK   41  A    between atoms: _91  and  _94
REMARK   42  A    between atoms: _94  and  _95
REMARK   43  A    between atoms: _97  and  _99
REMARK   44  A    between atoms: _99  and  _100
REMARK   45  A    between atoms: _99  and  _102
REMARK   46  A    between atoms: _102  and  _103
REMARK   47  A    between atoms: _106  and  _108
REMARK   48  A    between atoms: _108  and  _109
REMARK   49  A    between atoms: _112  and  _114
REMARK   50  A    between atoms: _114  and  _115
REMARK   51  A    between atoms: _114  and  _117
REMARK   52  A    between atoms: _117  and  _118
REMARK   53  A    between atoms: _121  and  _123
REMARK   54  A    between atoms: _123  and  _124
REMARK   55  A    between atoms: _123  and  _126
REMARK   56  A    between atoms: _126  and  _127
REMARK   57  A    between atoms: _130  and  _132
REMARK   58  A    between atoms: _132  and  _133
REMARK   59  A    between atoms: _132  and  _135
REMARK   60  A    between atoms: _135  and  _136
REMARK   61  A    between atoms: _136  and  _137
REMARK   62  A    between atoms: _137  and  _138
REMARK   63  A    between atoms: _138  and  _139
REMARK   64  A    between atoms: _143  and  _145
REMARK   65  A    between atoms: _145  and  _146
REMARK   66  A    between atoms: _145  and  _148
REMARK   67  A    between atoms: _148  and  _149
REMARK   68  A    between atoms: _152  and  _154
REMARK   69  A    between atoms: _154  and  _155
REMARK   70  A    between atoms: _154  and  _157
REMARK   71  A    between atoms: _157  and  _158
REMARK   72  A    between atoms: _161  and  _163
REMARK   73  A    between atoms: _163  and  _164
REMARK   74  A    between atoms: _163  and  _166
REMARK   75  A    between atoms: _169  and  _171
REMARK   76  A    between atoms: _171  and  _172
REMARK   77  A    between atoms: _171  and  _174
REMARK   78  A    between atoms: _174  and  _175
REMARK   79  A    between atoms: _178  and  _180
REMARK   80  A    between atoms: _180  and  _181
REMARK   81  A    between atoms: _180  and  _183
REMARK   82  A    between atoms: _183  and  _184
REMARK   83  A    between atoms: _187  and  _189
REMARK   84  A    between atoms: _189  and  _190
REMARK   85  A    between atoms: _192  and  _194
REMARK   86  A    between atoms: _194  and  _195
REMARK   87  A    between atoms: _194  and  _197
REMARK   88  A    between atoms: _197  and  _198
REMARK   89  A    between atoms: _201  and  _203
REMARK   90  A    between atoms: _203  and  _204
REMARK   91  A    between atoms: _206  and  _208
REMARK   92  A    between atoms: _208  and  _209
REMARK   93  A    between atoms: _208  and  _211
REMARK   94  A    between atoms: _211  and  _212
REMARK   95  A    between atoms: _212  and  _213
REMARK   96  A    between atoms: _215  and  _217
REMARK   97  A    between atoms: _217  and  _218
REMARK   98  A    between atoms: _217  and  _220
REMARK   99  A    between atoms: _220  and  _221
REMARK  100  A    between atoms: _224  and  _226
REMARK  101  A    between atoms: _226  and  _227
REMARK  102  A    between atoms: _226  and  _229
REMARK  103  A    between atoms: _229  and  _230
REMARK  104  A    between atoms: _230  and  _231
REMARK  105  A    between atoms: _231  and  _232
REMARK  106  A    between atoms: _232  and  _233
REMARK  107  A    between atoms: _237  and  _239
REMARK  108  A    between atoms: _239  and  _240
REMARK  109  A    between atoms: _243  and  _245
REMARK  110  A    between atoms: _245  and  _246
REMARK  111  A    between atoms: _245  and  _248
REMARK  112  A    between atoms: _248  and  _249
REMARK  113  A    between atoms: _252  and  _254
REMARK  114  A    between atoms: _254  and  _255
REMARK  115  A    between atoms: _254  and  _257
REMARK  116  A    between atoms: _257  and  _258
REMARK  117  A    between atoms: _261  and  _263
REMARK  118  A    between atoms: _263  and  _264
REMARK  119  A    between atoms: _263  and  _266
REMARK  120  A    between atoms: _266  and  _267
REMARK  121  A    between atoms: _270  and  _272
REMARK  122  A    between atoms: _272  and  _273
REMARK  123  A    between atoms: _272  and  _275
REMARK  124  A    between atoms: _275  and  _276
REMARK  125  A    between atoms: _281  and  _283
REMARK  126  A    between atoms: _283  and  _284
REMARK  127  A    between atoms: _283  and  _286
REMARK  128  A    between atoms: _286  and  _287
REMARK  129  A    between atoms: _292  and  _294
REMARK  130  A    between atoms: _294  and  _295
REMARK  131  A    between atoms: _294  and  _297
REMARK  132  A    between atoms: _297  and  _298
REMARK  133  A    between atoms: _301  and  _303
REMARK  134  A    between atoms: _303  and  _304
REMARK  135  A    between atoms: _306  and  _308
REMARK  136  A    between atoms: _308  and  _309
REMARK  137  A    between atoms: _308  and  _311
REMARK  138  A    between atoms: _311  and  _312
REMARK  139  A    between atoms: _315  and  _317
REMARK  140  A    between atoms: _317  and  _318
REMARK  141  A    between atoms: _317  and  _320
REMARK  142  A    between atoms: _320  and  _321
REMARK  143  A    between atoms: _324  and  _326
REMARK  144  A    between atoms: _326  and  _327
REMARK  145  A    between atoms: _330  and  _332
REMARK  146  A    between atoms: _332  and  _333
REMARK  147  A    between atoms: _332  and  _335
REMARK  148  A    between atoms: _335  and  _336
REMARK  149  A    between atoms: _336  and  _337
REMARK  150  A    between atoms: _337  and  _338
REMARK  151  A    between atoms: _338  and  _339
REMARK  152  A    between atoms: _343  and  _345
REMARK  153  A    between atoms: _345  and  _346
REMARK  154  A    between atoms: _348  and  _350
REMARK  155  A    between atoms: _350  and  _351
REMARK  156  A    between atoms: _350  and  _353
REMARK  157  A    between atoms: _353  and  _354
REMARK  158  A    between atoms: _357  and  _359
REMARK  159  A    between atoms: _359  and  _360
REMARK  160  A    between atoms: _362  and  _364
REMARK  161  A    between atoms: _364  and  _365
REMARK  162  A    between atoms: _364  and  _367
REMARK  163  A    between atoms: _367  and  _368
REMARK  164  A    between atoms: _374  and  _376
REMARK  165  A    between atoms: _376  and  _377
REMARK  166  A    between atoms: _379  and  _381
REMARK  167  A    between atoms: _381  and  _382
REMARK  168  A    between atoms: _381  and  _384
REMARK  169  A    between atoms: _387  and  _389
REMARK  170  A    between atoms: _389  and  _390
REMARK  171  A    between atoms: _392  and  _394
REMARK  172  A    between atoms: _394  and  _395
REMARK  173  A    between atoms: _394  and  _397
REMARK  174  A    between atoms: _397  and  _398
REMARK  175  A    between atoms: _404  and  _406
REMARK  176  A    between atoms: _406  and  _407
REMARK  177  A    between atoms: _406  and  _409
REMARK  178  A    between atoms: _409  and  _410
REMARK  179  A    between atoms: _415  and  _416
REMARK  180  A    between atoms: _418  and  _420
REMARK  181  A    between atoms: _420  and  _421
REMARK  182  A    between atoms: _420  and  _423
REMARK  183  A    between atoms: _423  and  _424
REMARK  184  A    between atoms: _429  and  _430
REMARK  185  A    between atoms: _432  and  _434
REMARK  186  A    between atoms: _434  and  _435
REMARK  187  A    between atoms: _434  and  _437
REMARK  188  A    between atoms: _440  and  _442
REMARK  189  A    between atoms: _442  and  _443
REMARK  190  A    between atoms: _442  and  _445
REMARK  191  A    between atoms: _445  and  _446
REMARK  192  A    between atoms: _449  and  _451
REMARK  193  A    between atoms: _451  and  _452
REMARK  194  A    between atoms: _451  and  _454
REMARK  195  A    between atoms: _457  and  _459
REMARK  196  A    between atoms: _459  and  _460
REMARK  197  A    between atoms: _459  and  _462
REMARK  198  A    between atoms: _462  and  _463
REMARK  199  A    between atoms: _466  and  _468
REMARK  200  A    between atoms: _468  and  _469
REMARK  201  A    between atoms: _468  and  _471
REMARK  202  A    between atoms: _471  and  _472
REMARK  203  A    between atoms: _475  and  _477
REMARK  204  A    between atoms: _477  and  _478
REMARK  205  A    between atoms: _477  and  _480
REMARK  206  A    between atoms: _480  and  _481
REMARK  207  A    between atoms: _481  and  _482
REMARK  208  A    between atoms: _482  and  _483
REMARK  209  A    between atoms: _483  and  _484
REMARK  210  A    between atoms: _488  and  _490
REMARK  211  A    between atoms: _490  and  _491
REMARK  212  A    between atoms: _490  and  _493
REMARK  213  A    between atoms: _493  and  _494
REMARK  214  A    between atoms: _504  and  _506
REMARK  215  A    between atoms: _506  and  _507
REMARK  216  A    between atoms: _506  and  _509
REMARK  217  A    between atoms: _509  and  _510
REMARK  218  A    between atoms: _510  and  _511
REMARK  219  A    between atoms: _514  and  _516
REMARK  220  A    between atoms: _516  and  _517
REMARK  221  A    between atoms: _516  and  _519
REMARK  222  A    between atoms: _519  and  _520
REMARK  223  A    between atoms: _522  and  _524
REMARK  224  A    between atoms: _524  and  _525
REMARK  225  A    between atoms: _524  and  _527
REMARK  226  A    between atoms: _527  and  _528
REMARK  227  A    between atoms: _534  and  _536
REMARK  228  A    between atoms: _536  and  _537
REMARK  229  A    between atoms: _536  and  _539
REMARK  230  A    between atoms: _539  and  _540
REMARK  231  A    between atoms: _543  and  _545
REMARK  232  A    between atoms: _545  and  _546
REMARK  233  A    between atoms: _545  and  _548
REMARK  234  A    between atoms: _551  and  _553
REMARK  235  A    between atoms: _553  and  _554
REMARK  236  A    between atoms: _556  and  _558
REMARK  237  A    between atoms: _558  and  _559
REMARK  238  A    between atoms: _558  and  _561
REMARK  239  A    between atoms: _561  and  _562
REMARK  240  A    between atoms: _565  and  _567
REMARK  241  A    between atoms: _567  and  _568
REMARK  242  A    between atoms: _567  and  _570
REMARK  243  A    between atoms: _570  and  _571
REMARK  244  A    between atoms: _571  and  _572
REMARK  245  A    between atoms: _572  and  _573
REMARK  246  A    between atoms: _573  and  _574
REMARK  247  A    between atoms: _578  and  _580
REMARK  248  A    between atoms: _580  and  _581
REMARK  249  A    between atoms: _580  and  _583
REMARK                            x       y       z     vdW  Elec       q    Type
REMARK                         _______ _______ _______ _____ _____    ______ ____
ROOT
ATOM      1  CG  TYR A   1       8.480 -19.579 -16.435  0.00  0.00    -0.020 A 
ATOM      2  CD2 TYR A   1       8.608 -20.912 -16.845  0.00  0.00    -0.001 A 
ATOM      3  CE2 TYR A   1       8.445 -21.279 -18.188  0.00  0.00    +0.036 A 
ATOM      4  CZ  TYR A   1       8.120 -20.311 -19.132  0.00  0.00    +0.134 A 
ATOM      5  CE1 TYR A   1       7.953 -18.986 -18.742  0.00  0.00    +0.036 A 
ATOM      6  CD1 TYR A   1       8.140 -18.626 -17.402  0.00  0.00    -0.001 A 
ENDROOT
BRANCH   4   7
ATOM      7  OH  TYR A   1       7.941 -20.658 -20.451  0.00  0.00    -0.506 OA
ATOM      8  HH  TYR A   1       8.096 -21.630 -20.559  0.00  0.00    +0.292 HD
ENDBRANCH   4   7
BRANCH   1   9
ATOM      9  CB  TYR A   1       8.600 -19.198 -14.972  0.00  0.00    +0.051 C 
BRANCH   9  10
ATOM     10  CA  TYR A   1       7.229 -19.416 -14.303  0.00  0.00    +0.137 C 
BRANCH  10  11
ATOM     11  N   TYR A   1       6.259 -18.397 -14.746  0.00  0.00    -0.239 NA
ATOM     12  H   TYR A   1       6.639 -17.492 -15.089  0.00  0.00    +0.142 HD
ENDBRANCH  10  11
BRANCH  10  13
ATOM     13  C   TYR A   1       7.304 -19.551 -12.762  0.00  0.00    +0.224 C 
ATOM     14  O   TYR A   1       8.003 -20.448 -12.262  0.00  0.00    -0.287 OA
ENDBRANCH  10  13
ENDBRANCH   9  10
ENDBRANCH   1   9
TORSDOF 5
REMARK  Name = ../refined-set-2016/4o07/4o07_pocket.pdb
REMARK  249 active torsions:
REMARK  status: ('A' for Active; 'I' for Inactive)
REMARK    1  A    between atoms: _1  and  _3
REMARK    2  A    between atoms: _3  and  _4
REMARK    3  A    between atoms: _3  and  _6
REMARK    4  A    between atoms: _6  and  _7
REMARK    5  A    between atoms: _13  and  _15
REMARK    6  A    between atoms: _15  and  _16
REMARK    7  A    between atoms: _15  and  _18
REMARK    8  A    between atoms: _18  and  _19
REMARK    9  A    between atoms: _19  and  _20
REMARK   10  A    between atoms: _25  and  _27
REMARK   11  A    between atoms: _27  and  _28
REMARK   12  A    between atoms: _27  and  _30
REMARK   13  A    between atoms: _30  and  _31
REMARK   14  A    between atoms: _34  and  _36
REMARK   15  A    between atoms: _36  and  _37
REMARK   16  A    between atoms: _36  and  _39
REMARK   17  A    between atoms: _39  and  _40
REMARK   18  A    between atoms: _40  and  _41
REMARK   19  A    between atoms: _44  and  _46
REMARK   20  A    between atoms: _46  and  _47
REMARK   21  A    between atoms: _46  and  _49
REMARK   22  A    between atoms: _49  and  _50
REMARK   23  A    between atoms: _53  and  _55
REMARK   24  A    between atoms: _55  and  _56
REMARK   25  A    between atoms: _55  and  _58
REMARK   26  A    between atoms: _58  and  _59
REMARK   27  A    between atoms: _62  and  _64
REMARK   28  A    between atoms: _64  and  _65
REMARK   29  A    between atoms: _64  and  _67
REMARK   30  A    between atoms: _67  and  _68
REMARK   31  A    between atoms: _70  and  _72
REMARK   32  A    between atoms: _72  and  _73
REMARK   33  A    between atoms: _72  and  _75
REMARK   34  A    between atoms: _75  and  _76
REMARK   35  A    between atoms: _81  and  _83
REMARK   36  A    between atoms: _83  and  _84
REMARK   37  A    between atoms: _83  and  _86
REMARK   38  A    between atoms: _86  and  _87
REMARK   39  A    between atoms: _89  and  _91
REMARK   40  A    between atoms: _91  and  _92
REMARK   41  A    between atoms: _91  and  _94
REMARK   42  A    between atoms: _94  and  _95
REMARK   43  A    between atoms: _97  and  _99
REMARK   44  A    between atoms: _99  and  _100
REMARK   45  A    between atoms: _99  and  _102
REMARK   46  A    between atoms: _102  and  _103
REMARK   47  A    between atoms: _106  and  _108
REMARK   48  A    between atoms: _108  and  _109
REMARK   49  A    between atoms: _112  and  _114
REMARK   50  A    between atoms: _114  and  _115
REMARK   51  A    between atoms: _114  and  _117
REMARK   52  A    between atoms: _117  and  _118
REMARK   53  A    between atoms: _121  and  _123
REMARK   54  A    between atoms: _123  and  _124
REMARK   55  A    between atoms: _123  and  _126
REMARK   56  A    between atoms: _126  and  _127
REMARK   57  A    between atoms: _130  and  _132
REMARK   58  A    between atoms: _132  and  _133
REMARK   59  A    between atoms: _132  and  _135
REMARK   60  A    between atoms: _135  and  _136
REMARK   61  A    between atoms: _136  and  _137
REMARK   62  A    between atoms: _137  and  _138
REMARK   63  A    between atoms: _138  and  _139
REMARK   64  A    between atoms: _143  and  _145
REMARK   65  A    between atoms: _145  and  _146
REMARK   66  A    between atoms: _145  and  _148
REMARK   67  A    between atoms: _148  and  _149
REMARK   68  A    between atoms: _152  and  _154
REMARK   69  A    between atoms: _154  and  _155
REMARK   70  A    between atoms: _154  and  _157
REMARK   71  A    between atoms: _157  and  _158
REMARK   72  A    between atoms: _161  and  _163
REMARK   73  A    between atoms: _163  and  _164
REMARK   74  A    between atoms: _163  and  _166
REMARK   75  A    between atoms: _169  and  _171
REMARK   76  A    between atoms: _171  and  _172
REMARK   77  A    between atoms: _171  and  _174
REMARK   78  A    between atoms: _174  and  _175
REMARK   79  A    between atoms: _178  and  _180
REMARK   80  A    between atoms: _180  and  _181
REMARK   81  A    between atoms: _180  and  _183
REMARK   82  A    between atoms: _183  and  _184
REMARK   83  A    between atoms: _187  and  _189
REMARK   84  A    between atoms: _189  and  _190
REMARK   85  A    between atoms: _192  and  _194
REMARK   86  A    between atoms: _194  and  _195
REMARK   87  A    between atoms: _194  and  _197
REMARK   88  A    between atoms: _197  and  _198
REMARK   89  A    between atoms: _201  and  _203
REMARK   90  A    between atoms: _203  and  _204
REMARK   91  A    between atoms: _206  and  _208
REMARK   92  A    between atoms: _208  and  _209
REMARK   93  A    between atoms: _208  and  _211
REMARK   94  A    between atoms: _211  and  _212
REMARK   95  A    between atoms: _212  and  _213
REMARK   96  A    between atoms: _215  and  _217
REMARK   97  A    between atoms: _217  and  _218
REMARK   98  A    between atoms: _217  and  _220
REMARK   99  A    between atoms: _220  and  _221
REMARK  100  A    between atoms: _224  and  _226
REMARK  101  A    between atoms: _226  and  _227
REMARK  102  A    between atoms: _226  and  _229
REMARK  103  A    between atoms: _229  and  _230
REMARK  104  A    between atoms: _230  and  _231
REMARK  105  A    between atoms: _231  and  _232
REMARK  106  A    between atoms: _232  and  _233
REMARK  107  A    between atoms: _237  and  _239
REMARK  108  A    between atoms: _239  and  _240
REMARK  109  A    between atoms: _243  and  _245
REMARK  110  A    between atoms: _245  and  _246
REMARK  111  A    between atoms: _245  and  _248
REMARK  112  A    between atoms: _248  and  _249
REMARK  113  A    between atoms: _252  and  _254
REMARK  114  A    between atoms: _254  and  _255
REMARK  115  A    between atoms: _254  and  _257
REMARK  116  A    between atoms: _257  and  _258
REMARK  117  A    between atoms: _261  and  _263
REMARK  118  A    between atoms: _263  and  _264
REMARK  119  A    between atoms: _263  and  _266
REMARK  120  A    between atoms: _266  and  _267
REMARK  121  A    between atoms: _270  and  _272
REMARK  122  A    between atoms: _272  and  _273
REMARK  123  A    between atoms: _272  and  _275
REMARK  124  A    between atoms: _275  and  _276
REMARK  125  A    between atoms: _281  and  _283
REMARK  126  A    between atoms: _283  and  _284
REMARK  127  A    between atoms: _283  and  _286
REMARK  128  A    between atoms: _286  and  _287
REMARK  129  A    between atoms: _292  and  _294
REMARK  130  A    between atoms: _294  and  _295
REMARK  131  A    between atoms: _294  and  _297
REMARK  132  A    between atoms: _297  and  _298
REMARK  133  A    between atoms: _301  and  _303
REMARK  134  A    between atoms: _303  and  _304
REMARK  135  A    between atoms: _306  and  _308
REMARK  136  A    between atoms: _308  and  _309
REMARK  137  A    between atoms: _308  and  _311
REMARK  138  A    between atoms: _311  and  _312
REMARK  139  A    between atoms: _315  and  _317
REMARK  140  A    between atoms: _317  and  _318
REMARK  141  A    between atoms: _317  and  _320
REMARK  142  A    between atoms: _320  and  _321
REMARK  143  A    between atoms: _324  and  _326
REMARK  144  A    between atoms: _326  and  _327
REMARK  145  A    between atoms: _330  and  _332
REMARK  146  A    between atoms: _332  and  _333
REMARK  147  A    between atoms: _332  and  _335
REMARK  148  A    between atoms: _335  and  _336
REMARK  149  A    between atoms: _336  and  _337
REMARK  150  A    between atoms: _337  and  _338
REMARK  151  A    between atoms: _338  and  _339
REMARK  152  A    between atoms: _343  and  _345
REMARK  153  A    between atoms: _345  and  _346
REMARK  154  A    between atoms: _348  and  _350
REMARK  155  A    between atoms: _350  and  _351
REMARK  156  A    between atoms: _350  and  _353
REMARK  157  A    between atoms: _353  and  _354
REMARK  158  A    between atoms: _357  and  _359
REMARK  159  A    between atoms: _359  and  _360
REMARK  160  A    between atoms: _362  and  _364
REMARK  161  A    between atoms: _364  and  _365
REMARK  162  A    between atoms: _364  and  _367
REMARK  163  A    between atoms: _367  and  _368
REMARK  164  A    between atoms: _374  and  _376
REMARK  165  A    between atoms: _376  and  _377
REMARK  166  A    between atoms: _379  and  _381
REMARK  167  A    between atoms: _381  and  _382
REMARK  168  A    between atoms: _381  and  _384
REMARK  169  A    between atoms: _387  and  _389
REMARK  170  A    between atoms: _389  and  _390
REMARK  171  A    between atoms: _392  and  _394
REMARK  172  A    between atoms: _394  and  _395
REMARK  173  A    between atoms: _394  and  _397
REMARK  174  A    between atoms: _397  and  _398
REMARK  175  A    between atoms: _404  and  _406
REMARK  176  A    between atoms: _406  and  _407
REMARK  177  A    between atoms: _406  and  _409
REMARK  178  A    between atoms: _409  and  _410
REMARK  179  A    between atoms: _415  and  _416
REMARK  180  A    between atoms: _418  and  _420
REMARK  181  A    between atoms: _420  and  _421
REMARK  182  A    between atoms: _420  and  _423
REMARK  183  A    between atoms: _423  and  _424
REMARK  184  A    between atoms: _429  and  _430
REMARK  185  A    between atoms: _432  and  _434
REMARK  186  A    between atoms: _434  and  _435
REMARK  187  A    between atoms: _434  and  _437
REMARK  188  A    between atoms: _440  and  _442
REMARK  189  A    between atoms: _442  and  _443
REMARK  190  A    between atoms: _442  and  _445
REMARK  191  A    between atoms: _445  and  _446
REMARK  192  A    between atoms: _449  and  _451
REMARK  193  A    between atoms: _451  and  _452
REMARK  194  A    between atoms: _451  and  _454
REMARK  195  A    between atoms: _457  and  _459
REMARK  196  A    between atoms: _459  and  _460
REMARK  197  A    between atoms: _459  and  _462
REMARK  198  A    between atoms: _462  and  _463
REMARK  199  A    between atoms: _466  and  _468
REMARK  200  A    between atoms: _468  and  _469
REMARK  201  A    between atoms: _468  and  _471
REMARK  202  A    between atoms: _471  and  _472
REMARK  203  A    between atoms: _475  and  _477
REMARK  204  A    between atoms: _477  and  _478
REMARK  205  A    between atoms: _477  and  _480
REMARK  206  A    between atoms: _480  and  _481
REMARK  207  A    between atoms: _481  and  _482
REMARK  208  A    between atoms: _482  and  _483
REMARK  209  A    between atoms: _483  and  _484
REMARK  210  A    between atoms: _488  and  _490
REMARK  211  A    between atoms: _490  and  _491
REMARK  212  A    between atoms: _490  and  _493
REMARK  213  A    between atoms: _493  and  _494
REMARK  214  A    between atoms: _504  and  _506
REMARK  215  A    between atoms: _506  and  _507
REMARK  216  A    between atoms: _506  and  _509
REMARK  217  A    between atoms: _509  and  _510
REMARK  218  A    between atoms: _510  and  _511
REMARK  219  A    between atoms: _514  and  _516
REMARK  220  A    between atoms: _516  and  _517
REMARK  221  A    between atoms: _516  and  _519
REMARK  222  A    between atoms: _519  and  _520
REMARK  223  A    between atoms: _522  and  _524
REMARK  224  A    between atoms: _524  and  _525
REMARK  225  A    between atoms: _524  and  _527
REMARK  226  A    between atoms: _527  and  _528
REMARK  227  A    between atoms: _534  and  _536
REMARK  228  A    between atoms: _536  and  _537
REMARK  229  A    between atoms: _536  and  _539
REMARK  230  A    between atoms: _539  and  _540
REMARK  231  A    between atoms: _543  and  _545
REMARK  232  A    between atoms: _545  and  _546
REMARK  233  A    between atoms: _545  and  _548
REMARK  234  A    between atoms: _551  and  _553
REMARK  235  A    between atoms: _553  and  _554
REMARK  236  A    between atoms: _556  and  _558
REMARK  237  A    between atoms: _558  and  _559
REMARK  238  A    between atoms: _558  and  _561
REMARK  239  A    between atoms: _561  and  _562
REMARK  240  A    between atoms: _565  and  _567
REMARK  241  A    between atoms: _567  and  _568
REMARK  242  A    between atoms: _567  and  _570
REMARK  243  A    between atoms: _570  and  _571
REMARK  244  A    between atoms: _571  and  _572
REMARK  245  A    between atoms: _572  and  _573
REMARK  246  A    between atoms: _573  and  _574
REMARK  247  A    between atoms: _578  and  _580
REMARK  248  A    between atoms: _580  and  _581
REMARK  249  A    between atoms: _580  and  _583
REMARK                            x       y       z     vdW  Elec       q    Type
REMARK                         _______ _______ _______ _____ _____    ______ ____
ROOT
ATOM      1  CA  ILE A   4      -1.157 -20.338 -29.018  0.00  0.00    +0.149 C 
ENDROOT
BRANCH   1   3
ATOM      2  C   VAL A   3       0.816 -20.030 -27.509  0.00  0.00    +0.241 C 
ATOM      3  N   ILE A   4      -0.516 -20.116 -27.701  0.00  0.00    -0.297 N 
ATOM      4  H   ILE A   4      -1.134 -20.020 -26.870  0.00  0.00    +0.150 HD
ATOM      5  O   VAL A   3       1.640 -20.165 -28.414  0.00  0.00    -0.273 OA
BRANCH   2   6
ATOM      6  CA  VAL A   3       1.307 -19.747 -26.073  0.00  0.00    +0.149 C 
BRANCH   6   9
ATOM      7  C   THR A   2       1.581 -21.667 -24.552  0.00  0.00    +0.243 C 
ATOM      8  O   THR A   2       0.571 -21.404 -23.904  0.00  0.00    -0.273 OA
ATOM      9  N   VAL A   3       1.995 -20.937 -25.582  0.00  0.00    -0.297 N 
ATOM     10  H   VAL A   3       2.865 -21.232 -26.070  0.00  0.00    +0.150 HD
BRANCH   7  11
ATOM     11  CA  THR A   2       2.439 -22.887 -24.188  0.00  0.00    +0.176 C 
BRANCH  11  13
ATOM     12  C   VAL A   1       3.991 -22.619 -22.261  0.00  0.00    +0.238 C 
ATOM     13  N   THR A   2       2.750 -22.775 -22.758  0.00  0.00    -0.295 N 
ATOM     14  H   THR A   2       1.959 -22.819 -22.084  0.00  0.00    +0.150 HD
ATOM     15  O   VAL A   1       5.014 -22.601 -22.950  0.00  0.00    -0.274 OA
BRANCH  12  16
ATOM     16  CA  VAL A   1       4.097 -22.449 -20.752  0.00  0.00    +0.145 C 
BRANCH  16  17
ATOM     17  CB  VAL A   1       4.423 -20.971 -20.330  0.00  0.00    +0.025 C 
ATOM     18  CG2 VAL A   1       4.534 -20.822 -18.810  0.00  0.00    +0.002 C 
ATOM     19  CG1 VAL A   1       3.375 -19.981 -20.862  0.00  0.00    +0.002 C 
ENDBRANCH  16  17
BRANCH  16  20
ATOM     20  N   VAL A   1       5.071 -23.438 -20.281  0.00  0.00    -0.238 NA
ATOM     21  H   VAL A   1       6.003 -23.465 -20.742  0.00  0.00    +0.142 HD
ENDBRANCH  16  20
ENDBRANCH  12  16
ENDBRANCH  11  13
BRANCH  11  22
ATOM     22  CB  THR A   2       1.758 -24.225 -24.535  0.00  0.00    +0.137 C 
ATOM     23  CG2 THR A   2       1.632 -24.437 -26.039  0.00  0.00    +0.034 C 
BRANCH  22  24
ATOM     24  OG1 THR A   2       2.539 -25.285 -23.996  0.00  0.00    -0.382 OA
ATOM     25  HG1 THR A   2       3.447 -25.257 -24.389  0.00  0.00    +0.210 HD
ENDBRANCH  22  24
ENDBRANCH  11  22
ENDBRANCH   7  11
ENDBRANCH   6   9
BRANCH   6  26
ATOM     26  CB  VAL A   3       2.203 -18.463 -25.955  0.00  0.00    +0.027 C 
ATOM     27  CG2 VAL A   3       2.592 -18.177 -24.499  0.00  0.00    +0.002 C 
ATOM     28  CG1 VAL A   3       1.514 -17.237 -26.564  0.00  0.00    +0.002 C 
ENDBRANCH   6  26
ENDBRANCH   2   6
ENDBRANCH   1   3
BRANCH   1  29
ATOM     29  C   ILE A   4      -1.663 -18.959 -29.388  0.00  0.00    +0.241 C 
ATOM     30  O   ILE A   4      -2.421 -18.371 -28.616  0.00  0.00    -0.273 OA
ATOM     31  N   THR A   5      -1.233 -18.427 -30.542  0.00  0.00    -0.295 N 
ATOM     32  H   THR A   5      -0.619 -18.984 -31.170  0.00  0.00    +0.150 HD
BRANCH  31  33
ATOM     33  CA  THR A   5      -1.620 -17.071 -30.923  0.00  0.00    +0.176 C 
BRANCH  33  34
ATOM     34  C   THR A   5      -1.891 -16.925 -32.425  0.00  0.00    +0.243 C 
ATOM     35  N   LYS A   6      -2.807 -16.004 -32.740  0.00  0.00    -0.298 N 
ATOM     36  H   LYS A   6      -3.244 -15.484 -31.953  0.00  0.00    +0.150 HD
ATOM     37  O   THR A   5      -1.284 -17.612 -33.253  0.00  0.00    -0.273 OA
BRANCH  35  38
ATOM     38  CA  LYS A   6      -3.251 -15.661 -34.089  0.00  0.00    +0.137 C 
BRANCH  38  39
ATOM     39  C   LYS A   6      -3.487 -14.154 -34.205  0.00  0.00    +0.227 C 
ATOM     40  O   LYS A   6      -4.379 -13.602 -33.546  0.00  0.00    -0.286 OA
ENDBRANCH  38  39
BRANCH  38  41
ATOM     41  CB  LYS A   6      -4.519 -16.476 -34.467  0.00  0.00    +0.028 C 
BRANCH  41  42
ATOM     42  CG  LYS A   6      -5.153 -16.161 -35.847  0.00  0.00    -0.000 C 
BRANCH  42  43
ATOM     43  CD  LYS A   6      -4.348 -16.673 -37.052  0.00  0.00    -0.024 C 
BRANCH  43  44
ATOM     44  CE  LYS A   6      -5.005 -16.328 -38.382  0.00  0.00    -0.086 C 
BRANCH  44  45
ATOM     45  NZ  LYS A   6      -4.834 -14.890 -38.751  0.00  0.00    +0.380 N 
ATOM     46  HZ1 LYS A   6      -5.264 -14.292 -38.017  0.00  0.00    -0.089 HD
ATOM     47  HZ2 LYS A   6      -3.820 -14.671 -38.829  0.00  0.00    -0.089 HD
ATOM     48  HZ3 LYS A   6      -5.300 -14.710 -39.663  0.00  0.00    -0.089 HD
ENDBRANCH  44  45
ENDBRANCH  43  44
ENDBRANCH  42  43
ENDBRANCH  41  42
ENDBRANCH  38  41
ENDBRANCH  35  38
ENDBRANCH  33  34
BRANCH  33  49
ATOM     49  CB  THR A   5      -0.564 -16.063 -30.385  0.00  0.00    +0.137 C 
ATOM     50  CG2 THR A   5       0.821 -16.178 -31.059  0.00  0.00    +0.034 C 
BRANCH  49  51
ATOM     51  OG1 THR A   5      -1.068 -14.734 -30.447  0.00  0.00    -0.382 OA
ATOM     52  HG1 THR A   5      -1.888 -14.667 -29.896  0.00  0.00    +0.210 HD
ENDBRANCH  49  51
ENDBRANCH  33  49
ENDBRANCH  31  33
ENDBRANCH   1  29
BRANCH   1  53
ATOM     53  CB  ILE A   4      -2.300 -21.414 -29.050  0.00  0.00    +0.027 C 
ATOM     54  CG2 ILE A   4      -2.733 -21.717 -30.513  0.00  0.00    +0.002 C 
BRANCH  53  55
ATOM     55  CG1 ILE A   4      -1.939 -22.727 -28.257  0.00  0.00    +0.002 C 
ATOM     56  CD1 ILE A   4      -0.833 -23.665 -28.795  0.00  0.00    +0.000 C 
ENDBRANCH  53  55
ENDBRANCH   1  53
TORSDOF 25
REMARK  Name = ../refined-set-2016/4o07/4o07_pocket.pdb
REMARK  249 active torsions:
REMARK  status: ('A' for Active; 'I' for Inactive)
REMARK    1  A    between atoms: _1  and  _3
REMARK    2  A    between atoms: _3  and  _4
REMARK    3  A    between atoms: _3  and  _6
REMARK    4  A    between atoms: _6  and  _7
REMARK    5  A    between atoms: _13  and  _15
REMARK    6  A    between atoms: _15  and  _16
REMARK    7  A    between atoms: _15  and  _18
REMARK    8  A    between atoms: _18  and  _19
REMARK    9  A    between atoms: _19  and  _20
REMARK   10  A    between atoms: _25  and  _27
REMARK   11  A    between atoms: _27  and  _28
REMARK   12  A    between atoms: _27  and  _30
REMARK   13  A    between atoms: _30  and  _31
REMARK   14  A    between atoms: _34  and  _36
REMARK   15  A    between atoms: _36  and  _37
REMARK   16  A    between atoms: _36  and  _39
REMARK   17  A    between atoms: _39  and  _40
REMARK   18  A    between atoms: _40  and  _41
REMARK   19  A    between atoms: _44  and  _46
REMARK   20  A    between atoms: _46  and  _47
REMARK   21  A    between atoms: _46  and  _49
REMARK   22  A    between atoms: _49  and  _50
REMARK   23  A    between atoms: _53  and  _55
REMARK   24  A    between atoms: _55  and  _56
REMARK   25  A    between atoms: _55  and  _58
REMARK   26  A    between atoms: _58  and  _59
REMARK   27  A    between atoms: _62  and  _64
REMARK   28  A    between atoms: _64  and  _65
REMARK   29  A    between atoms: _64  and  _67
REMARK   30  A    between atoms: _67  and  _68
REMARK   31  A    between atoms: _70  and  _72
REMARK   32  A    between atoms: _72  and  _73
REMARK   33  A    between atoms: _72  and  _75
REMARK   34  A    between atoms: _75  and  _76
REMARK   35  A    between atoms: _81  and  _83
REMARK   36  A    between atoms: _83  and  _84
REMARK   37  A    between atoms: _83  and  _86
REMARK   38  A    between atoms: _86  and  _87
REMARK   39  A    between atoms: _89  and  _91
REMARK   40  A    between atoms: _91  and  _92
REMARK   41  A    between atoms: _91  and  _94
REMARK   42  A    between atoms: _94  and  _95
REMARK   43  A    between atoms: _97  and  _99
REMARK   44  A    between atoms: _99  and  _100
REMARK   45  A    between atoms: _99  and  _102
REMARK   46  A    between atoms: _102  and  _103
REMARK   47  A    between atoms: _106  and  _108
REMARK   48  A    between atoms: _108  and  _109
REMARK   49  A    between atoms: _112  and  _114
REMARK   50  A    between atoms: _114  and  _115
REMARK   51  A    between atoms: _114  and  _117
REMARK   52  A    between atoms: _117  and  _118
REMARK   53  A    between atoms: _121  and  _123
REMARK   54  A    between atoms: _123  and  _124
REMARK   55  A    between atoms: _123  and  _126
REMARK   56  A    between atoms: _126  and  _127
REMARK   57  A    between atoms: _130  and  _132
REMARK   58  A    between atoms: _132  and  _133
REMARK   59  A    between atoms: _132  and  _135
REMARK   60  A    between atoms: _135  and  _136
REMARK   61  A    between atoms: _136  and  _137
REMARK   62  A    between atoms: _137  and  _138
REMARK   63  A    between atoms: _138  and  _139
REMARK   64  A    between atoms: _143  and  _145
REMARK   65  A    between atoms: _145  and  _146
REMARK   66  A    between atoms: _145  and  _148
REMARK   67  A    between atoms: _148  and  _149
REMARK   68  A    between atoms: _152  and  _154
REMARK   69  A    between atoms: _154  and  _155
REMARK   70  A    between atoms: _154  and  _157
REMARK   71  A    between atoms: _157  and  _158
REMARK   72  A    between atoms: _161  and  _163
REMARK   73  A    between atoms: _163  and  _164
REMARK   74  A    between atoms: _163  and  _166
REMARK   75  A    between atoms: _169  and  _171
REMARK   76  A    between atoms: _171  and  _172
REMARK   77  A    between atoms: _171  and  _174
REMARK   78  A    between atoms: _174  and  _175
REMARK   79  A    between atoms: _178  and  _180
REMARK   80  A    between atoms: _180  and  _181
REMARK   81  A    between atoms: _180  and  _183
REMARK   82  A    between atoms: _183  and  _184
REMARK   83  A    between atoms: _187  and  _189
REMARK   84  A    between atoms: _189  and  _190
REMARK   85  A    between atoms: _192  and  _194
REMARK   86  A    between atoms: _194  and  _195
REMARK   87  A    between atoms: _194  and  _197
REMARK   88  A    between atoms: _197  and  _198
REMARK   89  A    between atoms: _201  and  _203
REMARK   90  A    between atoms: _203  and  _204
REMARK   91  A    between atoms: _206  and  _208
REMARK   92  A    between atoms: _208  and  _209
REMARK   93  A    between atoms: _208  and  _211
REMARK   94  A    between atoms: _211  and  _212
REMARK   95  A    between atoms: _212  and  _213
REMARK   96  A    between atoms: _215  and  _217
REMARK   97  A    between atoms: _217  and  _218
REMARK   98  A    between atoms: _217  and  _220
REMARK   99  A    between atoms: _220  and  _221
REMARK  100  A    between atoms: _224  and  _226
REMARK  101  A    between atoms: _226  and  _227
REMARK  102  A    between atoms: _226  and  _229
REMARK  103  A    between atoms: _229  and  _230
REMARK  104  A    between atoms: _230  and  _231
REMARK  105  A    between atoms: _231  and  _232
REMARK  106  A    between atoms: _232  and  _233
REMARK  107  A    between atoms: _237  and  _239
REMARK  108  A    between atoms: _239  and  _240
REMARK  109  A    between atoms: _243  and  _245
REMARK  110  A    between atoms: _245  and  _246
REMARK  111  A    between atoms: _245  and  _248
REMARK  112  A    between atoms: _248  and  _249
REMARK  113  A    between atoms: _252  and  _254
REMARK  114  A    between atoms: _254  and  _255
REMARK  115  A    between atoms: _254  and  _257
REMARK  116  A    between atoms: _257  and  _258
REMARK  117  A    between atoms: _261  and  _263
REMARK  118  A    between atoms: _263  and  _264
REMARK  119  A    between atoms: _263  and  _266
REMARK  120  A    between atoms: _266  and  _267
REMARK  121  A    between atoms: _270  and  _272
REMARK  122  A    between atoms: _272  and  _273
REMARK  123  A    between atoms: _272  and  _275
REMARK  124  A    between atoms: _275  and  _276
REMARK  125  A    between atoms: _281  and  _283
REMARK  126  A    between atoms: _283  and  _284
REMARK  127  A    between atoms: _283  and  _286
REMARK  128  A    between atoms: _286  and  _287
REMARK  129  A    between atoms: _292  and  _294
REMARK  130  A    between atoms: _294  and  _295
REMARK  131  A    between atoms: _294  and  _297
REMARK  132  A    between atoms: _297  and  _298
REMARK  133  A    between atoms: _301  and  _303
REMARK  134  A    between atoms: _303  and  _304
REMARK  135  A    between atoms: _306  and  _308
REMARK  136  A    between atoms: _308  and  _309
REMARK  137  A    between atoms: _308  and  _311
REMARK  138  A    between atoms: _311  and  _312
REMARK  139  A    between atoms: _315  and  _317
REMARK  140  A    between atoms: _317  and  _318
REMARK  141  A    between atoms: _317  and  _320
REMARK  142  A    between atoms: _320  and  _321
REMARK  143  A    between atoms: _324  and  _326
REMARK  144  A    between atoms: _326  and  _327
REMARK  145  A    between atoms: _330  and  _332
REMARK  146  A    between atoms: _332  and  _333
REMARK  147  A    between atoms: _332  and  _335
REMARK  148  A    between atoms: _335  and  _336
REMARK  149  A    between atoms: _336  and  _337
REMARK  150  A    between atoms: _337  and  _338
REMARK  151  A    between atoms: _338  and  _339
REMARK  152  A    between atoms: _343  and  _345
REMARK  153  A    between atoms: _345  and  _346
REMARK  154  A    between atoms: _348  and  _350
REMARK  155  A    between atoms: _350  and  _351
REMARK  156  A    between atoms: _350  and  _353
REMARK  157  A    between atoms: _353  and  _354
REMARK  158  A    between atoms: _357  and  _359
REMARK  159  A    between atoms: _359  and  _360
REMARK  160  A    between atoms: _362  and  _364
REMARK  161  A    between atoms: _364  and  _365
REMARK  162  A    between atoms: _364  and  _367
REMARK  163  A    between atoms: _367  and  _368
REMARK  164  A    between atoms: _374  and  _376
REMARK  165  A    between atoms: _376  and  _377
REMARK  166  A    between atoms: _379  and  _381
REMARK  167  A    between atoms: _381  and  _382
REMARK  168  A    between atoms: _381  and  _384
REMARK  169  A    between atoms: _387  and  _389
REMARK  170  A    between atoms: _389  and  _390
REMARK  171  A    between atoms: _392  and  _394
REMARK  172  A    between atoms: _394  and  _395
REMARK  173  A    between atoms: _394  and  _397
REMARK  174  A    between atoms: _397  and  _398
REMARK  175  A    between atoms: _404  and  _406
REMARK  176  A    between atoms: _406  and  _407
REMARK  177  A    between atoms: _406  and  _409
REMARK  178  A    between atoms: _409  and  _410
REMARK  179  A    between atoms: _415  and  _416
REMARK  180  A    between atoms: _418  and  _420
REMARK  181  A    between atoms: _420  and  _421
REMARK  182  A    between atoms: _420  and  _423
REMARK  183  A    between atoms: _423  and  _424
REMARK  184  A    between atoms: _429  and  _430
REMARK  185  A    between atoms: _432  and  _434
REMARK  186  A    between atoms: _434  and  _435
REMARK  187  A    between atoms: _434  and  _437
REMARK  188  A    between atoms: _440  and  _442
REMARK  189  A    between atoms: _442  and  _443
REMARK  190  A    between atoms: _442  and  _445
REMARK  191  A    between atoms: _445  and  _446
REMARK  192  A    between atoms: _449  and  _451
REMARK  193  A    between atoms: _451  and  _452
REMARK  194  A    between atoms: _451  and  _454
REMARK  195  A    between atoms: _457  and  _459
REMARK  196  A    between atoms: _459  and  _460
REMARK  197  A    between atoms: _459  and  _462
REMARK  198  A    between atoms: _462  and  _463
REMARK  199  A    between atoms: _466  and  _468
REMARK  200  A    between atoms: _468  and  _469
REMARK  201  A    between atoms: _468  and  _471
REMARK  202  A    between atoms: _471  and  _472
REMARK  203  A    between atoms: _475  and  _477
REMARK  204  A    between atoms: _477  and  _478
REMARK  205  A    between atoms: _477  and  _480
REMARK  206  A    between atoms: _480  and  _481
REMARK  207  A    between atoms: _481  and  _482
REMARK  208  A    between atoms: _482  and  _483
REMARK  209  A    between atoms: _483  and  _484
REMARK  210  A    between atoms: _488  and  _490
REMARK  211  A    between atoms: _490  and  _491
REMARK  212  A    between atoms: _490  and  _493
REMARK  213  A    between atoms: _493  and  _494
REMARK  214  A    between atoms: _504  and  _506
REMARK  215  A    between atoms: _506  and  _507
REMARK  216  A    between atoms: _506  and  _509
REMARK  217  A    between atoms: _509  and  _510
REMARK  218  A    between atoms: _510  and  _511
REMARK  219  A    between atoms: _514  and  _516
REMARK  220  A    between atoms: _516  and  _517
REMARK  221  A    between atoms: _516  and  _519
REMARK  222  A    between atoms: _519  and  _520
REMARK  223  A    between atoms: _522  and  _524
REMARK  224  A    between atoms: _524  and  _525
REMARK  225  A    between atoms: _524  and  _527
REMARK  226  A    between atoms: _527  and  _528
REMARK  227  A    between atoms: _534  and  _536
REMARK  228  A    between atoms: _536  and  _537
REMARK  229  A    between atoms: _536  and  _539
REMARK  230  A    between atoms: _539  and  _540
REMARK  231  A    between atoms: _543  and  _545
REMARK  232  A    between atoms: _545  and  _546
REMARK  233  A    between atoms: _545  and  _548
REMARK  234  A    between atoms: _551  and  _553
REMARK  235  A    between atoms: _553  and  _554
REMARK  236  A    between atoms: _556  and  _558
REMARK  237  A    between atoms: _558  and  _559
REMARK  238  A    between atoms: _558  and  _561
REMARK  239  A    between atoms: _561  and  _562
REMARK  240  A    between atoms: _565  and  _567
REMARK  241  A    between atoms: _567  and  _568
REMARK  242  A    between atoms: _567  and  _570
REMARK  243  A    between atoms: _570  and  _571
REMARK  244  A    between atoms: _571  and  _572
REMARK  245  A    between atoms: _572  and  _573
REMARK  246  A    between atoms: _573  and  _574
REMARK  247  A    between atoms: _578  and  _580
REMARK  248  A    between atoms: _580  and  _581
REMARK  249  A    between atoms: _580  and  _583
REMARK                            x       y       z     vdW  Elec       q    Type
REMARK                         _______ _______ _______ _____ _____    ______ ____
ROOT
ATOM      1  C   TRP A   1       5.301 -21.700 -27.495  0.00  0.00    +0.239 C 
ATOM      2  O   TRP A   1       4.240 -21.859 -26.882  0.00  0.00    -0.274 OA
ATOM      3  N   GLU A   2       6.458 -22.245 -27.095  0.00  0.00    -0.297 N 
ATOM      4  H   GLU A   2       7.320 -22.066 -27.649  0.00  0.00    +0.150 HD
ENDROOT
BRANCH   1   5
ATOM      5  CA  TRP A   1       5.325 -20.834 -28.749  0.00  0.00    +0.149 C 
BRANCH   5   6
ATOM      6  N   TRP A   1       4.060 -21.169 -29.424  0.00  0.00    -0.238 NA
ATOM      7  H   TRP A   1       3.191 -20.753 -29.032  0.00  0.00    +0.142 HD
ENDBRANCH   5   6
BRANCH   5   8
ATOM      8  CB  TRP A   1       5.386 -19.336 -28.360  0.00  0.00    +0.054 C 
BRANCH   8   9
ATOM      9  CG  TRP A   1       6.592 -18.873 -27.565  0.00  0.00    -0.002 A 
ATOM     10  CD2 TRP A   1       6.776 -18.955 -26.135  0.00  0.00    +0.013 A 
ATOM     11  CE3 TRP A   1       6.016 -19.496 -25.075  0.00  0.00    +0.001 A 
ATOM     12  CZ3 TRP A   1       6.514 -19.411 -23.773  0.00  0.00    +0.000 A 
ATOM     13  CH2 TRP A   1       7.736 -18.772 -23.504  0.00  0.00    +0.001 A 
ATOM     14  CZ2 TRP A   1       8.505 -18.226 -24.520  0.00  0.00    +0.017 A 
ATOM     15  CE2 TRP A   1       8.013 -18.331 -25.834  0.00  0.00    +0.056 A 
ATOM     16  NE1 TRP A   1       8.525 -17.853 -27.012  0.00  0.00    -0.352 N 
ATOM     17  HE1 TRP A   1       9.415 -17.325 -27.112  0.00  0.00    +0.166 HD
ATOM     18  CD1 TRP A   1       7.670 -18.185 -28.045  0.00  0.00    +0.068 A 
ENDBRANCH   8   9
ENDBRANCH   5   8
ENDBRANCH   1   5
BRANCH   3  19
ATOM     19  CA  GLU A   2       6.543 -23.088 -25.897  0.00  0.00    +0.149 C 
BRANCH  19  20
ATOM     20  C   GLU A   2       7.915 -23.044 -25.265  0.00  0.00    +0.241 C 
ATOM     21  N   SER A   3       7.948 -23.087 -23.917  0.00  0.00    -0.296 N 
ATOM     22  H   SER A   3       7.044 -23.099 -23.403  0.00  0.00    +0.150 HD
ATOM     23  O   GLU A   2       8.924 -22.996 -25.977  0.00  0.00    -0.273 OA
BRANCH  21  24
ATOM     24  CA  SER A   3       9.183 -23.118 -23.142  0.00  0.00    +0.166 C 
BRANCH  24  25
ATOM     25  C   SER A   3       8.983 -23.685 -21.759  0.00  0.00    +0.229 C 
ATOM     26  O   SER A   3       8.035 -23.318 -21.064  0.00  0.00    -0.286 OA
ENDBRANCH  24  25
BRANCH  24  27
ATOM     27  CB  SER A   3       9.847 -21.743 -23.055  0.00  0.00    +0.165 C 
BRANCH  27  28
ATOM     28  OG  SER A   3      11.089 -21.857 -22.378  0.00  0.00    -0.380 OA
ATOM     29  H   SER A   3      11.679 -22.477 -22.875  0.00  0.00    +0.211 HD
ENDBRANCH  27  28
ENDBRANCH  24  27
ENDBRANCH  21  24
ENDBRANCH  19  20
BRANCH  19  30
ATOM     30  CB  GLU A   2       6.182 -24.543 -26.260  0.00  0.00    +0.041 C 
BRANCH  30  31
ATOM     31  CG  GLU A   2       5.782 -25.429 -25.094  0.00  0.00    +0.116 C 
BRANCH  31  32
ATOM     32  CD  GLU A   2       5.274 -26.790 -25.527  0.00  0.00    +0.365 C 
ATOM     33  OE2 GLU A   2       4.090 -27.090 -25.261  0.00  0.00    -0.246 OA
ATOM     34  OE1 GLU A   2       6.055 -27.556 -26.136  0.00  0.00    -0.246 OA
ENDBRANCH  31  32
ENDBRANCH  30  31
ENDBRANCH  19  30
ENDBRANCH   3  19
TORSDOF 13
REMARK  Name = ../refined-set-2016/4o07/4o07_pocket.pdb
REMARK  249 active torsions:
REMARK  status: ('A' for Active; 'I' for Inactive)
REMARK    1  A    between atoms: _1  and  _3
REMARK    2  A    between atoms: _3  and  _4
REMARK    3  A    between atoms: _3  and  _6
REMARK    4  A    between atoms: _6  and  _7
REMARK    5  A    between atoms: _13  and  _15
REMARK    6  A    between atoms: _15  and  _16
REMARK    7  A    between atoms: _15  and  _18
REMARK    8  A    between atoms: _18  and  _19
REMARK    9  A    between atoms: _19  and  _20
REMARK   10  A    between atoms: _25  and  _27
REMARK   11  A    between atoms: _27  and  _28
REMARK   12  A    between atoms: _27  and  _30
REMARK   13  A    between atoms: _30  and  _31
REMARK   14  A    between atoms: _34  and  _36
REMARK   15  A    between atoms: _36  and  _37
REMARK   16  A    between atoms: _36  and  _39
REMARK   17  A    between atoms: _39  and  _40
REMARK   18  A    between atoms: _40  and  _41
REMARK   19  A    between atoms: _44  and  _46
REMARK   20  A    between atoms: _46  and  _47
REMARK   21  A    between atoms: _46  and  _49
REMARK   22  A    between atoms: _49  and  _50
REMARK   23  A    between atoms: _53  and  _55
REMARK   24  A    between atoms: _55  and  _56
REMARK   25  A    between atoms: _55  and  _58
REMARK   26  A    between atoms: _58  and  _59
REMARK   27  A    between atoms: _62  and  _64
REMARK   28  A    between atoms: _64  and  _65
REMARK   29  A    between atoms: _64  and  _67
REMARK   30  A    between atoms: _67  and  _68
REMARK   31  A    between atoms: _70  and  _72
REMARK   32  A    between atoms: _72  and  _73
REMARK   33  A    between atoms: _72  and  _75
REMARK   34  A    between atoms: _75  and  _76
REMARK   35  A    between atoms: _81  and  _83
REMARK   36  A    between atoms: _83  and  _84
REMARK   37  A    between atoms: _83  and  _86
REMARK   38  A    between atoms: _86  and  _87
REMARK   39  A    between atoms: _89  and  _91
REMARK   40  A    between atoms: _91  and  _92
REMARK   41  A    between atoms: _91  and  _94
REMARK   42  A    between atoms: _94  and  _95
REMARK   43  A    between atoms: _97  and  _99
REMARK   44  A    between atoms: _99  and  _100
REMARK   45  A    between atoms: _99  and  _102
REMARK   46  A    between atoms: _102  and  _103
REMARK   47  A    between atoms: _106  and  _108
REMARK   48  A    between atoms: _108  and  _109
REMARK   49  A    between atoms: _112  and  _114
REMARK   50  A    between atoms: _114  and  _115
REMARK   51  A    between atoms: _114  and  _117
REMARK   52  A    between atoms: _117  and  _118
REMARK   53  A    between atoms: _121  and  _123
REMARK   54  A    between atoms: _123  and  _124
REMARK   55  A    between atoms: _123  and  _126
REMARK   56  A    between atoms: _126  and  _127
REMARK   57  A    between atoms: _130  and  _132
REMARK   58  A    between atoms: _132  and  _133
REMARK   59  A    between atoms: _132  and  _135
REMARK   60  A    between atoms: _135  and  _136
REMARK   61  A    between atoms: _136  and  _137
REMARK   62  A    between atoms: _137  and  _138
REMARK   63  A    between atoms: _138  and  _139
REMARK   64  A    between atoms: _143  and  _145
REMARK   65  A    between atoms: _145  and  _146
REMARK   66  A    between atoms: _145  and  _148
REMARK   67  A    between atoms: _148  and  _149
REMARK   68  A    between atoms: _152  and  _154
REMARK   69  A    between atoms: _154  and  _155
REMARK   70  A    between atoms: _154  and  _157
REMARK   71  A    between atoms: _157  and  _158
REMARK   72  A    between atoms: _161  and  _163
REMARK   73  A    between atoms: _163  and  _164
REMARK   74  A    between atoms: _163  and  _166
REMARK   75  A    between atoms: _169  and  _171
REMARK   76  A    between atoms: _171  and  _172
REMARK   77  A    between atoms: _171  and  _174
REMARK   78  A    between atoms: _174  and  _175
REMARK   79  A    between atoms: _178  and  _180
REMARK   80  A    between atoms: _180  and  _181
REMARK   81  A    between atoms: _180  and  _183
REMARK   82  A    between atoms: _183  and  _184
REMARK   83  A    between atoms: _187  and  _189
REMARK   84  A    between atoms: _189  and  _190
REMARK   85  A    between atoms: _192  and  _194
REMARK   86  A    between atoms: _194  and  _195
REMARK   87  A    between atoms: _194  and  _197
REMARK   88  A    between atoms: _197  and  _198
REMARK   89  A    between atoms: _201  and  _203
REMARK   90  A    between atoms: _203  and  _204
REMARK   91  A    between atoms: _206  and  _208
REMARK   92  A    between atoms: _208  and  _209
REMARK   93  A    between atoms: _208  and  _211
REMARK   94  A    between atoms: _211  and  _212
REMARK   95  A    between atoms: _212  and  _213
REMARK   96  A    between atoms: _215  and  _217
REMARK   97  A    between atoms: _217  and  _218
REMARK   98  A    between atoms: _217  and  _220
REMARK   99  A    between atoms: _220  and  _221
REMARK  100  A    between atoms: _224  and  _226
REMARK  101  A    between atoms: _226  and  _227
REMARK  102  A    between atoms: _226  and  _229
REMARK  103  A    between atoms: _229  and  _230
REMARK  104  A    between atoms: _230  and  _231
REMARK  105  A    between atoms: _231  and  _232
REMARK  106  A    between atoms: _232  and  _233
REMARK  107  A    between atoms: _237  and  _239
REMARK  108  A    between atoms: _239  and  _240
REMARK  109  A    between atoms: _243  and  _245
REMARK  110  A    between atoms: _245  and  _246
REMARK  111  A    between atoms: _245  and  _248
REMARK  112  A    between atoms: _248  and  _249
REMARK  113  A    between atoms: _252  and  _254
REMARK  114  A    between atoms: _254  and  _255
REMARK  115  A    between atoms: _254  and  _257
REMARK  116  A    between atoms: _257  and  _258
REMARK  117  A    between atoms: _261  and  _263
REMARK  118  A    between atoms: _263  and  _264
REMARK  119  A    between atoms: _263  and  _266
REMARK  120  A    between atoms: _266  and  _267
REMARK  121  A    between atoms: _270  and  _272
REMARK  122  A    between atoms: _272  and  _273
REMARK  123  A    between atoms: _272  and  _275
REMARK  124  A    between atoms: _275  and  _276
REMARK  125  A    between atoms: _281  and  _283
REMARK  126  A    between atoms: _283  and  _284
REMARK  127  A    between atoms: _283  and  _286
REMARK  128  A    between atoms: _286  and  _287
REMARK  129  A    between atoms: _292  and  _294
REMARK  130  A    between atoms: _294  and  _295
REMARK  131  A    between atoms: _294  and  _297
REMARK  132  A    between atoms: _297  and  _298
REMARK  133  A    between atoms: _301  and  _303
REMARK  134  A    between atoms: _303  and  _304
REMARK  135  A    between atoms: _306  and  _308
REMARK  136  A    between atoms: _308  and  _309
REMARK  137  A    between atoms: _308  and  _311
REMARK  138  A    between atoms: _311  and  _312
REMARK  139  A    between atoms: _315  and  _317
REMARK  140  A    between atoms: _317  and  _318
REMARK  141  A    between atoms: _317  and  _320
REMARK  142  A    between atoms: _320  and  _321
REMARK  143  A    between atoms: _324  and  _326
REMARK  144  A    between atoms: _326  and  _327
REMARK  145  A    between atoms: _330  and  _332
REMARK  146  A    between atoms: _332  and  _333
REMARK  147  A    between atoms: _332  and  _335
REMARK  148  A    between atoms: _335  and  _336
REMARK  149  A    between atoms: _336  and  _337
REMARK  150  A    between atoms: _337  and  _338
REMARK  151  A    between atoms: _338  and  _339
REMARK  152  A    between atoms: _343  and  _345
REMARK  153  A    between atoms: _345  and  _346
REMARK  154  A    between atoms: _348  and  _350
REMARK  155  A    between atoms: _350  and  _351
REMARK  156  A    between atoms: _350  and  _353
REMARK  157  A    between atoms: _353  and  _354
REMARK  158  A    between atoms: _357  and  _359
REMARK  159  A    between atoms: _359  and  _360
REMARK  160  A    between atoms: _362  and  _364
REMARK  161  A    between atoms: _364  and  _365
REMARK  162  A    between atoms: _364  and  _367
REMARK  163  A    between atoms: _367  and  _368
REMARK  164  A    between atoms: _374  and  _376
REMARK  165  A    between atoms: _376  and  _377
REMARK  166  A    between atoms: _379  and  _381
REMARK  167  A    between atoms: _381  and  _382
REMARK  168  A    between atoms: _381  and  _384
REMARK  169  A    between atoms: _387  and  _389
REMARK  170  A    between atoms: _389  and  _390
REMARK  171  A    between atoms: _392  and  _394
REMARK  172  A    between atoms: _394  and  _395
REMARK  173  A    between atoms: _394  and  _397
REMARK  174  A    between atoms: _397  and  _398
REMARK  175  A    between atoms: _404  and  _406
REMARK  176  A    between atoms: _406  and  _407
REMARK  177  A    between atoms: _406  and  _409
REMARK  178  A    between atoms: _409  and  _410
REMARK  179  A    between atoms: _415  and  _416
REMARK  180  A    between atoms: _418  and  _420
REMARK  181  A    between atoms: _420  and  _421
REMARK  182  A    between atoms: _420  and  _423
REMARK  183  A    between atoms: _423  and  _424
REMARK  184  A    between atoms: _429  and  _430
REMARK  185  A    between atoms: _432  and  _434
REMARK  186  A    between atoms: _434  and  _435
REMARK  187  A    between atoms: _434  and  _437
REMARK  188  A    between atoms: _440  and  _442
REMARK  189  A    between atoms: _442  and  _443
REMARK  190  A    between atoms: _442  and  _445
REMARK  191  A    between atoms: _445  and  _446
REMARK  192  A    between atoms: _449  and  _451
REMARK  193  A    between atoms: _451  and  _452
REMARK  194  A    between atoms: _451  and  _454
REMARK  195  A    between atoms: _457  and  _459
REMARK  196  A    between atoms: _459  and  _460
REMARK  197  A    between atoms: _459  and  _462
REMARK  198  A    between atoms: _462  and  _463
REMARK  199  A    between atoms: _466  and  _468
REMARK  200  A    between atoms: _468  and  _469
REMARK  201  A    between atoms: _468  and  _471
REMARK  202  A    between atoms: _471  and  _472
REMARK  203  A    between atoms: _475  and  _477
REMARK  204  A    between atoms: _477  and  _478
REMARK  205  A    between atoms: _477  and  _480
REMARK  206  A    between atoms: _480  and  _481
REMARK  207  A    between atoms: _481  and  _482
REMARK  208  A    between atoms: _482  and  _483
REMARK  209  A    between atoms: _483  and  _484
REMARK  210  A    between atoms: _488  and  _490
REMARK  211  A    between atoms: _490  and  _491
REMARK  212  A    between atoms: _490  and  _493
REMARK  213  A    between atoms: _493  and  _494
REMARK  214  A    between atoms: _504  and  _506
REMARK  215  A    between atoms: _506  and  _507
REMARK  216  A    between atoms: _506  and  _509
REMARK  217  A    between atoms: _509  and  _510
REMARK  218  A    between atoms: _510  and  _511
REMARK  219  A    between atoms: _514  and  _516
REMARK  220  A    between atoms: _516  and  _517
REMARK  221  A    between atoms: _516  and  _519
REMARK  222  A    between atoms: _519  and  _520
REMARK  223  A    between atoms: _522  and  _524
REMARK  224  A    between atoms: _524  and  _525
REMARK  225  A    between atoms: _524  and  _527
REMARK  226  A    between atoms: _527  and  _528
REMARK  227  A    between atoms: _534  and  _536
REMARK  228  A    between atoms: _536  and  _537
REMARK  229  A    between atoms: _536  and  _539
REMARK  230  A    between atoms: _539  and  _540
REMARK  231  A    between atoms: _543  and  _545
REMARK  232  A    between atoms: _545  and  _546
REMARK  233  A    between atoms: _545  and  _548
REMARK  234  A    between atoms: _551  and  _553
REMARK  235  A    between atoms: _553  and  _554
REMARK  236  A    between atoms: _556  and  _558
REMARK  237  A    between atoms: _558  and  _559
REMARK  238  A    between atoms: _558  and  _561
REMARK  239  A    between atoms: _561  and  _562
REMARK  240  A    between atoms: _565  and  _567
REMARK  241  A    between atoms: _567  and  _568
REMARK  242  A    between atoms: _567  and  _570
REMARK  243  A    between atoms: _570  and  _571
REMARK  244  A    between atoms: _571  and  _572
REMARK  245  A    between atoms: _572  and  _573
REMARK  246  A    between atoms: _573  and  _574
REMARK  247  A    between atoms: _578  and  _580
REMARK  248  A    between atoms: _580  and  _581
REMARK  249  A    between atoms: _580  and  _583
REMARK                            x       y       z     vdW  Elec       q    Type
REMARK                         _______ _______ _______ _____ _____    ______ ____
ROOT
ATOM      1  CA  THR A   2      10.240 -23.408 -29.611  0.00  0.00    +0.176 C 
ENDROOT
BRANCH   1   3
ATOM      2  C   PHE A   1      11.792 -22.382 -28.007  0.00  0.00    +0.239 C 
ATOM      3  N   THR A   2      10.588 -22.895 -28.281  0.00  0.00    -0.295 N 
ATOM      4  H   THR A   2       9.874 -22.932 -27.526  0.00  0.00    +0.150 HD
ATOM      5  O   PHE A   1      12.707 -22.305 -28.833  0.00  0.00    -0.274 OA
BRANCH   2   6
ATOM      6  CA  PHE A   1      11.998 -21.855 -26.598  0.00  0.00    +0.149 C 
BRANCH   6   7
ATOM      7  N   PHE A   1      13.405 -21.892 -26.242  0.00  0.00    -0.238 NA
ATOM      8  H   PHE A   1      14.090 -21.629 -26.979  0.00  0.00    +0.142 HD
ENDBRANCH   6   7
BRANCH   6   9
ATOM      9  CB  PHE A   1      11.360 -20.469 -26.405  0.00  0.00    +0.053 C 
BRANCH   9  10
ATOM     10  CG  PHE A   1      11.816 -19.355 -27.315  0.00  0.00    -0.020 A 
ATOM     11  CD2 PHE A   1      12.884 -18.533 -26.956  0.00  0.00    -0.004 A 
ATOM     12  CE2 PHE A   1      13.290 -17.473 -27.788  0.00  0.00    -0.000 A 
ATOM     13  CZ  PHE A   1      12.615 -17.225 -28.975  0.00  0.00    -0.000 A 
ATOM     14  CE1 PHE A   1      11.558 -18.038 -29.353  0.00  0.00    -0.000 A 
ATOM     15  CD1 PHE A   1      11.150 -19.096 -28.519  0.00  0.00    -0.004 A 
ENDBRANCH   9  10
ENDBRANCH   6   9
ENDBRANCH   2   6
ENDBRANCH   1   3
BRANCH   1  16
ATOM     16  C   THR A   2       9.088 -22.618 -30.213  0.00  0.00    +0.243 C 
ATOM     17  O   THR A   2       8.244 -22.105 -29.474  0.00  0.00    -0.273 OA
ATOM     18  N   VAL A   3       9.063 -22.524 -31.553  0.00  0.00    -0.298 N 
ATOM     19  H   VAL A   3       9.853 -22.953 -32.075  0.00  0.00    +0.150 HD
BRANCH  18  20
ATOM     20  CA  VAL A   3       8.013 -21.866 -32.342  0.00  0.00    +0.137 C 
BRANCH  20  21
ATOM     21  CB  VAL A   3       8.321 -20.396 -32.811  0.00  0.00    +0.026 C 
ATOM     22  CG2 VAL A   3       8.533 -19.449 -31.628  0.00  0.00    +0.002 C 
ATOM     23  CG1 VAL A   3       7.218 -19.839 -33.724  0.00  0.00    +0.002 C 
ENDBRANCH  20  21
BRANCH  20  24
ATOM     24  C   VAL A   3       7.713 -22.821 -33.516  0.00  0.00    +0.227 C 
ATOM     25  O   VAL A   3       8.635 -23.253 -34.221  0.00  0.00    -0.286 OA
ENDBRANCH  20  24
ENDBRANCH  18  20
ENDBRANCH   1  16
BRANCH   1  26
ATOM     26  CB  THR A   2       9.919 -24.908 -29.605  0.00  0.00    +0.137 C 
ATOM     27  CG2 THR A   2      11.084 -25.786 -29.118  0.00  0.00    +0.034 C 
BRANCH  26  28
ATOM     28  OG1 THR A   2       8.713 -25.141 -28.876  0.00  0.00    -0.382 OA
ATOM     29  HG1 THR A   2       7.969 -24.648 -29.305  0.00  0.00    +0.210 HD
ENDBRANCH  26  28
ENDBRANCH   1  26
TORSDOF 11
REMARK  Name = ../refined-set-2016/4o07/4o07_pocket.pdb
REMARK  249 active torsions:
REMARK  status: ('A' for Active; 'I' for Inactive)
REMARK    1  A    between atoms: _1  and  _3
REMARK    2  A    between atoms: _3  and  _4
REMARK    3  A    between atoms: _3  and  _6
REMARK    4  A    between atoms: _6  and  _7
REMARK    5  A    between atoms: _13  and  _15
REMARK    6  A    between atoms: _15  and  _16
REMARK    7  A    between atoms: _15  and  _18
REMARK    8  A    between atoms: _18  and  _19
REMARK    9  A    between atoms: _19  and  _20
REMARK   10  A    between atoms: _25  and  _27
REMARK   11  A    between atoms: _27  and  _28
REMARK   12  A    between atoms: _27  and  _30
REMARK   13  A    between atoms: _30  and  _31
REMARK   14  A    between atoms: _34  and  _36
REMARK   15  A    between atoms: _36  and  _37
REMARK   16  A    between atoms: _36  and  _39
REMARK   17  A    between atoms: _39  and  _40
REMARK   18  A    between atoms: _40  and  _41
REMARK   19  A    between atoms: _44  and  _46
REMARK   20  A    between atoms: _46  and  _47
REMARK   21  A    between atoms: _46  and  _49
REMARK   22  A    between atoms: _49  and  _50
REMARK   23  A    between atoms: _53  and  _55
REMARK   24  A    between atoms: _55  and  _56
REMARK   25  A    between atoms: _55  and  _58
REMARK   26  A    between atoms: _58  and  _59
REMARK   27  A    between atoms: _62  and  _64
REMARK   28  A    between atoms: _64  and  _65
REMARK   29  A    between atoms: _64  and  _67
REMARK   30  A    between atoms: _67  and  _68
REMARK   31  A    between atoms: _70  and  _72
REMARK   32  A    between atoms: _72  and  _73
REMARK   33  A    between atoms: _72  and  _75
REMARK   34  A    between atoms: _75  and  _76
REMARK   35  A    between atoms: _81  and  _83
REMARK   36  A    between atoms: _83  and  _84
REMARK   37  A    between atoms: _83  and  _86
REMARK   38  A    between atoms: _86  and  _87
REMARK   39  A    between atoms: _89  and  _91
REMARK   40  A    between atoms: _91  and  _92
REMARK   41  A    between atoms: _91  and  _94
REMARK   42  A    between atoms: _94  and  _95
REMARK   43  A    between atoms: _97  and  _99
REMARK   44  A    between atoms: _99  and  _100
REMARK   45  A    between atoms: _99  and  _102
REMARK   46  A    between atoms: _102  and  _103
REMARK   47  A    between atoms: _106  and  _108
REMARK   48  A    between atoms: _108  and  _109
REMARK   49  A    between atoms: _112  and  _114
REMARK   50  A    between atoms: _114  and  _115
REMARK   51  A    between atoms: _114  and  _117
REMARK   52  A    between atoms: _117  and  _118
REMARK   53  A    between atoms: _121  and  _123
REMARK   54  A    between atoms: _123  and  _124
REMARK   55  A    between atoms: _123  and  _126
REMARK   56  A    between atoms: _126  and  _127
REMARK   57  A    between atoms: _130  and  _132
REMARK   58  A    between atoms: _132  and  _133
REMARK   59  A    between atoms: _132  and  _135
REMARK   60  A    between atoms: _135  and  _136
REMARK   61  A    between atoms: _136  and  _137
REMARK   62  A    between atoms: _137  and  _138
REMARK   63  A    between atoms: _138  and  _139
REMARK   64  A    between atoms: _143  and  _145
REMARK   65  A    between atoms: _145  and  _146
REMARK   66  A    between atoms: _145  and  _148
REMARK   67  A    between atoms: _148  and  _149
REMARK   68  A    between atoms: _152  and  _154
REMARK   69  A    between atoms: _154  and  _155
REMARK   70  A    between atoms: _154  and  _157
REMARK   71  A    between atoms: _157  and  _158
REMARK   72  A    between atoms: _161  and  _163
REMARK   73  A    between atoms: _163  and  _164
REMARK   74  A    between atoms: _163  and  _166
REMARK   75  A    between atoms: _169  and  _171
REMARK   76  A    between atoms: _171  and  _172
REMARK   77  A    between atoms: _171  and  _174
REMARK   78  A    between atoms: _174  and  _175
REMARK   79  A    between atoms: _178  and  _180
REMARK   80  A    between atoms: _180  and  _181
REMARK   81  A    between atoms: _180  and  _183
REMARK   82  A    between atoms: _183  and  _184
REMARK   83  A    between atoms: _187  and  _189
REMARK   84  A    between atoms: _189  and  _190
REMARK   85  A    between atoms: _192  and  _194
REMARK   86  A    between atoms: _194  and  _195
REMARK   87  A    between atoms: _194  and  _197
REMARK   88  A    between atoms: _197  and  _198
REMARK   89  A    between atoms: _201  and  _203
REMARK   90  A    between atoms: _203  and  _204
REMARK   91  A    between atoms: _206  and  _208
REMARK   92  A    between atoms: _208  and  _209
REMARK   93  A    between atoms: _208  and  _211
REMARK   94  A    between atoms: _211  and  _212
REMARK   95  A    between atoms: _212  and  _213
REMARK   96  A    between atoms: _215  and  _217
REMARK   97  A    between atoms: _217  and  _218
REMARK   98  A    between atoms: _217  and  _220
REMARK   99  A    between atoms: _220  and  _221
REMARK  100  A    between atoms: _224  and  _226
REMARK  101  A    between atoms: _226  and  _227
REMARK  102  A    between atoms: _226  and  _229
REMARK  103  A    between atoms: _229  and  _230
REMARK  104  A    between atoms: _230  and  _231
REMARK  105  A    between atoms: _231  and  _232
REMARK  106  A    between atoms: _232  and  _233
REMARK  107  A    between atoms: _237  and  _239
REMARK  108  A    between atoms: _239  and  _240
REMARK  109  A    between atoms: _243  and  _245
REMARK  110  A    between atoms: _245  and  _246
REMARK  111  A    between atoms: _245  and  _248
REMARK  112  A    between atoms: _248  and  _249
REMARK  113  A    between atoms: _252  and  _254
REMARK  114  A    between atoms: _254  and  _255
REMARK  115  A    between atoms: _254  and  _257
REMARK  116  A    between atoms: _257  and  _258
REMARK  117  A    between atoms: _261  and  _263
REMARK  118  A    between atoms: _263  and  _264
REMARK  119  A    between atoms: _263  and  _266
REMARK  120  A    between atoms: _266  and  _267
REMARK  121  A    between atoms: _270  and  _272
REMARK  122  A    between atoms: _272  and  _273
REMARK  123  A    between atoms: _272  and  _275
REMARK  124  A    between atoms: _275  and  _276
REMARK  125  A    between atoms: _281  and  _283
REMARK  126  A    between atoms: _283  and  _284
REMARK  127  A    between atoms: _283  and  _286
REMARK  128  A    between atoms: _286  and  _287
REMARK  129  A    between atoms: _292  and  _294
REMARK  130  A    between atoms: _294  and  _295
REMARK  131  A    between atoms: _294  and  _297
REMARK  132  A    between atoms: _297  and  _298
REMARK  133  A    between atoms: _301  and  _303
REMARK  134  A    between atoms: _303  and  _304
REMARK  135  A    between atoms: _306  and  _308
REMARK  136  A    between atoms: _308  and  _309
REMARK  137  A    between atoms: _308  and  _311
REMARK  138  A    between atoms: _311  and  _312
REMARK  139  A    between atoms: _315  and  _317
REMARK  140  A    between atoms: _317  and  _318
REMARK  141  A    between atoms: _317  and  _320
REMARK  142  A    between atoms: _320  and  _321
REMARK  143  A    between atoms: _324  and  _326
REMARK  144  A    between atoms: _326  and  _327
REMARK  145  A    between atoms: _330  and  _332
REMARK  146  A    between atoms: _332  and  _333
REMARK  147  A    between atoms: _332  and  _335
REMARK  148  A    between atoms: _335  and  _336
REMARK  149  A    between atoms: _336  and  _337
REMARK  150  A    between atoms: _337  and  _338
REMARK  151  A    between atoms: _338  and  _339
REMARK  152  A    between atoms: _343  and  _345
REMARK  153  A    between atoms: _345  and  _346
REMARK  154  A    between atoms: _348  and  _350
REMARK  155  A    between atoms: _350  and  _351
REMARK  156  A    between atoms: _350  and  _353
REMARK  157  A    between atoms: _353  and  _354
REMARK  158  A    between atoms: _357  and  _359
REMARK  159  A    between atoms: _359  and  _360
REMARK  160  A    between atoms: _362  and  _364
REMARK  161  A    between atoms: _364  and  _365
REMARK  162  A    between atoms: _364  and  _367
REMARK  163  A    between atoms: _367  and  _368
REMARK  164  A    between atoms: _374  and  _376
REMARK  165  A    between atoms: _376  and  _377
REMARK  166  A    between atoms: _379  and  _381
REMARK  167  A    between atoms: _381  and  _382
REMARK  168  A    between atoms: _381  and  _384
REMARK  169  A    between atoms: _387  and  _389
REMARK  170  A    between atoms: _389  and  _390
REMARK  171  A    between atoms: _392  and  _394
REMARK  172  A    between atoms: _394  and  _395
REMARK  173  A    between atoms: _394  and  _397
REMARK  174  A    between atoms: _397  and  _398
REMARK  175  A    between atoms: _404  and  _406
REMARK  176  A    between atoms: _406  and  _407
REMARK  177  A    between atoms: _406  and  _409
REMARK  178  A    between atoms: _409  and  _410
REMARK  179  A    between atoms: _415  and  _416
REMARK  180  A    between atoms: _418  and  _420
REMARK  181  A    between atoms: _420  and  _421
REMARK  182  A    between atoms: _420  and  _423
REMARK  183  A    between atoms: _423  and  _424
REMARK  184  A    between atoms: _429  and  _430
REMARK  185  A    between atoms: _432  and  _434
REMARK  186  A    between atoms: _434  and  _435
REMARK  187  A    between atoms: _434  and  _437
REMARK  188  A    between atoms: _440  and  _442
REMARK  189  A    between atoms: _442  and  _443
REMARK  190  A    between atoms: _442  and  _445
REMARK  191  A    between atoms: _445  and  _446
REMARK  192  A    between atoms: _449  and  _451
REMARK  193  A    between atoms: _451  and  _452
REMARK  194  A    between atoms: _451  and  _454
REMARK  195  A    between atoms: _457  and  _459
REMARK  196  A    between atoms: _459  and  _460
REMARK  197  A    between atoms: _459  and  _462
REMARK  198  A    between atoms: _462  and  _463
REMARK  199  A    between atoms: _466  and  _468
REMARK  200  A    between atoms: _468  and  _469
REMARK  201  A    between atoms: _468  and  _471
REMARK  202  A    between atoms: _471  and  _472
REMARK  203  A    between atoms: _475  and  _477
REMARK  204  A    between atoms: _477  and  _478
REMARK  205  A    between atoms: _477  and  _480
REMARK  206  A    between atoms: _480  and  _481
REMARK  207  A    between atoms: _481  and  _482
REMARK  208  A    between atoms: _482  and  _483
REMARK  209  A    between atoms: _483  and  _484
REMARK  210  A    between atoms: _488  and  _490
REMARK  211  A    between atoms: _490  and  _491
REMARK  212  A    between atoms: _490  and  _493
REMARK  213  A    between atoms: _493  and  _494
REMARK  214  A    between atoms: _504  and  _506
REMARK  215  A    between atoms: _506  and  _507
REMARK  216  A    between atoms: _506  and  _509
REMARK  217  A    between atoms: _509  and  _510
REMARK  218  A    between atoms: _510  and  _511
REMARK  219  A    between atoms: _514  and  _516
REMARK  220  A    between atoms: _516  and  _517
REMARK  221  A    between atoms: _516  and  _519
REMARK  222  A    between atoms: _519  and  _520
REMARK  223  A    between atoms: _522  and  _524
REMARK  224  A    between atoms: _524  and  _525
REMARK  225  A    between atoms: _524  and  _527
REMARK  226  A    between atoms: _527  and  _528
REMARK  227  A    between atoms: _534  and  _536
REMARK  228  A    between atoms: _536  and  _537
REMARK  229  A    between atoms: _536  and  _539
REMARK  230  A    between atoms: _539  and  _540
REMARK  231  A    between atoms: _543  and  _545
REMARK  232  A    between atoms: _545  and  _546
REMARK  233  A    between atoms: _545  and  _548
REMARK  234  A    between atoms: _551  and  _553
REMARK  235  A    between atoms: _553  and  _554
REMARK  236  A    between atoms: _556  and  _558
REMARK  237  A    between atoms: _558  and  _559
REMARK  238  A    between atoms: _558  and  _561
REMARK  239  A    between atoms: _561  and  _562
REMARK  240  A    between atoms: _565  and  _567
REMARK  241  A    between atoms: _567  and  _568
REMARK  242  A    between atoms: _567  and  _570
REMARK  243  A    between atoms: _570  and  _571
REMARK  244  A    between atoms: _571  and  _572
REMARK  245  A    between atoms: _572  and  _573
REMARK  246  A    between atoms: _573  and  _574
REMARK  247  A    between atoms: _578  and  _580
REMARK  248  A    between atoms: _580  and  _581
REMARK  249  A    between atoms: _580  and  _583
REMARK                            x       y       z     vdW  Elec       q    Type
REMARK                         _______ _______ _______ _____ _____    ______ ____
ROOT
ATOM      1  CA  LYS A   3      -4.303 -18.747 -25.398  0.00  0.00    +0.149 C 
ENDROOT
BRANCH   1   4
ATOM      2  C   THR A   2      -4.555 -16.517 -26.523  0.00  0.00    +0.243 C 
ATOM      3  O   THR A   2      -5.437 -16.090 -25.774  0.00  0.00    -0.273 OA
ATOM      4  N   LYS A   3      -4.007 -17.743 -26.422  0.00  0.00    -0.297 N 
ATOM      5  H   LYS A   3      -3.304 -18.002 -27.143  0.00  0.00    +0.150 HD
BRANCH   2   6
ATOM      6  CA  THR A   2      -3.983 -15.621 -27.624  0.00  0.00    +0.176 C 
BRANCH   6   8
ATOM      7  C   GLY A   1      -5.061 -14.572 -29.593  0.00  0.00    +0.240 C 
ATOM      8  N   THR A   2      -5.007 -14.803 -28.270  0.00  0.00    -0.295 N 
ATOM      9  H   THR A   2      -5.739 -14.373 -27.669  0.00  0.00    +0.150 HD
ATOM     10  O   GLY A   1      -4.270 -15.062 -30.405  0.00  0.00    -0.274 OA
BRANCH   7  11
ATOM     11  CA  GLY A   1      -6.168 -13.653 -30.045  0.00  0.00    +0.169 C 
BRANCH  11  12
ATOM     12  N   GLY A   1      -6.470 -13.700 -31.470  0.00  0.00    -0.236 NA
ATOM     13  H   GLY A   1      -5.690 -13.595 -32.150  0.00  0.00    +0.142 HD
ENDBRANCH  11  12
ENDBRANCH   7  11
ENDBRANCH   6   8
BRANCH   6  14
ATOM     14  CB  THR A   2      -2.874 -14.681 -27.068  0.00  0.00    +0.137 C 
ATOM     15  CG2 THR A   2      -1.707 -15.432 -26.415  0.00  0.00    +0.034 C 
BRANCH  14  16
ATOM     16  OG1 THR A   2      -2.373 -13.848 -28.115  0.00  0.00    -0.382 OA
ATOM     17  HG1 THR A   2      -1.992 -14.414 -28.832  0.00  0.00    +0.210 HD
ENDBRANCH  14  16
ENDBRANCH   6  14
ENDBRANCH   2   6
ENDBRANCH   1   4
BRANCH   1  18
ATOM     18  C   LYS A   3      -2.959 -19.009 -24.715  0.00  0.00    +0.241 C 
ATOM     19  N   VAL A   4      -2.879 -18.756 -23.393  0.00  0.00    -0.298 N 
ATOM     20  H   VAL A   4      -3.723 -18.371 -22.923  0.00  0.00    +0.150 HD
ATOM     21  O   LYS A   3      -2.002 -19.410 -25.390  0.00  0.00    -0.273 OA
BRANCH  19  22
ATOM     22  CA  VAL A   4      -1.683 -18.986 -22.569  0.00  0.00    +0.137 C 
BRANCH  22  23
ATOM     23  CB  VAL A   4      -1.207 -17.739 -21.745  0.00  0.00    +0.026 C 
ATOM     24  CG2 VAL A   4      -0.072 -18.093 -20.776  0.00  0.00    +0.002 C 
ATOM     25  CG1 VAL A   4      -0.768 -16.607 -22.665  0.00  0.00    +0.002 C 
ENDBRANCH  22  23
BRANCH  22  26
ATOM     26  C   VAL A   4      -2.045 -20.205 -21.704  0.00  0.00    +0.227 C 
ATOM     27  O   VAL A   4      -2.916 -20.103 -20.842  0.00  0.00    -0.286 OA
ENDBRANCH  22  26
ENDBRANCH  19  22
ENDBRANCH   1  18
BRANCH   1  28
ATOM     28  CB  LYS A   3      -4.833 -20.075 -25.988  0.00  0.00    +0.029 C 
BRANCH  28  29
ATOM     29  CG  LYS A   3      -6.245 -20.065 -26.509  0.00  0.00    +0.000 C 
BRANCH  29  30
ATOM     30  CD  LYS A   3      -6.618 -21.445 -27.026  0.00  0.00    -0.024 C 
BRANCH  30  31
ATOM     31  CE  LYS A   3      -7.947 -21.441 -27.739  0.00  0.00    -0.086 C 
BRANCH  31  32
ATOM     32  NZ  LYS A   3      -8.302 -22.795 -28.237  0.00  0.00    +0.380 N 
ATOM     33  HZ1 LYS A   3      -8.360 -23.454 -27.434  0.00  0.00    -0.089 HD
ATOM     34  HZ2 LYS A   3      -9.221 -22.755 -28.722  0.00  0.00    -0.089 HD
ATOM     35  HZ3 LYS A   3      -7.572 -23.121 -28.902  0.00  0.00    -0.089 HD
ENDBRANCH  31  32
ENDBRANCH  30  31
ENDBRANCH  29  30
ENDBRANCH  28  29
ENDBRANCH   1  28
TORSDOF 16
REMARK  Name = ../refined-set-2016/4o07/4o07_pocket.pdb
REMARK  249 active torsions:
REMARK  status: ('A' for Active; 'I' for Inactive)
REMARK    1  A    between atoms: _1  and  _3
REMARK    2  A    between atoms: _3  and  _4
REMARK    3  A    between atoms: _3  and  _6
REMARK    4  A    between atoms: _6  and  _7
REMARK    5  A    between atoms: _13  and  _15
REMARK    6  A    between atoms: _15  and  _16
REMARK    7  A    between atoms: _15  and  _18
REMARK    8  A    between atoms: _18  and  _19
REMARK    9  A    between atoms: _19  and  _20
REMARK   10  A    between atoms: _25  and  _27
REMARK   11  A    between atoms: _27  and  _28
REMARK   12  A    between atoms: _27  and  _30
REMARK   13  A    between atoms: _30  and  _31
REMARK   14  A    between atoms: _34  and  _36
REMARK   15  A    between atoms: _36  and  _37
REMARK   16  A    between atoms: _36  and  _39
REMARK   17  A    between atoms: _39  and  _40
REMARK   18  A    between atoms: _40  and  _41
REMARK   19  A    between atoms: _44  and  _46
REMARK   20  A    between atoms: _46  and  _47
REMARK   21  A    between atoms: _46  and  _49
REMARK   22  A    between atoms: _49  and  _50
REMARK   23  A    between atoms: _53  and  _55
REMARK   24  A    between atoms: _55  and  _56
REMARK   25  A    between atoms: _55  and  _58
REMARK   26  A    between atoms: _58  and  _59
REMARK   27  A    between atoms: _62  and  _64
REMARK   28  A    between atoms: _64  and  _65
REMARK   29  A    between atoms: _64  and  _67
REMARK   30  A    between atoms: _67  and  _68
REMARK   31  A    between atoms: _70  and  _72
REMARK   32  A    between atoms: _72  and  _73
REMARK   33  A    between atoms: _72  and  _75
REMARK   34  A    between atoms: _75  and  _76
REMARK   35  A    between atoms: _81  and  _83
REMARK   36  A    between atoms: _83  and  _84
REMARK   37  A    between atoms: _83  and  _86
REMARK   38  A    between atoms: _86  and  _87
REMARK   39  A    between atoms: _89  and  _91
REMARK   40  A    between atoms: _91  and  _92
REMARK   41  A    between atoms: _91  and  _94
REMARK   42  A    between atoms: _94  and  _95
REMARK   43  A    between atoms: _97  and  _99
REMARK   44  A    between atoms: _99  and  _100
REMARK   45  A    between atoms: _99  and  _102
REMARK   46  A    between atoms: _102  and  _103
REMARK   47  A    between atoms: _106  and  _108
REMARK   48  A    between atoms: _108  and  _109
REMARK   49  A    between atoms: _112  and  _114
REMARK   50  A    between atoms: _114  and  _115
REMARK   51  A    between atoms: _114  and  _117
REMARK   52  A    between atoms: _117  and  _118
REMARK   53  A    between atoms: _121  and  _123
REMARK   54  A    between atoms: _123  and  _124
REMARK   55  A    between atoms: _123  and  _126
REMARK   56  A    between atoms: _126  and  _127
REMARK   57  A    between atoms: _130  and  _132
REMARK   58  A    between atoms: _132  and  _133
REMARK   59  A    between atoms: _132  and  _135
REMARK   60  A    between atoms: _135  and  _136
REMARK   61  A    between atoms: _136  and  _137
REMARK   62  A    between atoms: _137  and  _138
REMARK   63  A    between atoms: _138  and  _139
REMARK   64  A    between atoms: _143  and  _145
REMARK   65  A    between atoms: _145  and  _146
REMARK   66  A    between atoms: _145  and  _148
REMARK   67  A    between atoms: _148  and  _149
REMARK   68  A    between atoms: _152  and  _154
REMARK   69  A    between atoms: _154  and  _155
REMARK   70  A    between atoms: _154  and  _157
REMARK   71  A    between atoms: _157  and  _158
REMARK   72  A    between atoms: _161  and  _163
REMARK   73  A    between atoms: _163  and  _164
REMARK   74  A    between atoms: _163  and  _166
REMARK   75  A    between atoms: _169  and  _171
REMARK   76  A    between atoms: _171  and  _172
REMARK   77  A    between atoms: _171  and  _174
REMARK   78  A    between atoms: _174  and  _175
REMARK   79  A    between atoms: _178  and  _180
REMARK   80  A    between atoms: _180  and  _181
REMARK   81  A    between atoms: _180  and  _183
REMARK   82  A    between atoms: _183  and  _184
REMARK   83  A    between atoms: _187  and  _189
REMARK   84  A    between atoms: _189  and  _190
REMARK   85  A    between atoms: _192  and  _194
REMARK   86  A    between atoms: _194  and  _195
REMARK   87  A    between atoms: _194  and  _197
REMARK   88  A    between atoms: _197  and  _198
REMARK   89  A    between atoms: _201  and  _203
REMARK   90  A    between atoms: _203  and  _204
REMARK   91  A    between atoms: _206  and  _208
REMARK   92  A    between atoms: _208  and  _209
REMARK   93  A    between atoms: _208  and  _211
REMARK   94  A    between atoms: _211  and  _212
REMARK   95  A    between atoms: _212  and  _213
REMARK   96  A    between atoms: _215  and  _217
REMARK   97  A    between atoms: _217  and  _218
REMARK   98  A    between atoms: _217  and  _220
REMARK   99  A    between atoms: _220  and  _221
REMARK  100  A    between atoms: _224  and  _226
REMARK  101  A    between atoms: _226  and  _227
REMARK  102  A    between atoms: _226  and  _229
REMARK  103  A    between atoms: _229  and  _230
REMARK  104  A    between atoms: _230  and  _231
REMARK  105  A    between atoms: _231  and  _232
REMARK  106  A    between atoms: _232  and  _233
REMARK  107  A    between atoms: _237  and  _239
REMARK  108  A    between atoms: _239  and  _240
REMARK  109  A    between atoms: _243  and  _245
REMARK  110  A    between atoms: _245  and  _246
REMARK  111  A    between atoms: _245  and  _248
REMARK  112  A    between atoms: _248  and  _249
REMARK  113  A    between atoms: _252  and  _254
REMARK  114  A    between atoms: _254  and  _255
REMARK  115  A    between atoms: _254  and  _257
REMARK  116  A    between atoms: _257  and  _258
REMARK  117  A    between atoms: _261  and  _263
REMARK  118  A    between atoms: _263  and  _264
REMARK  119  A    between atoms: _263  and  _266
REMARK  120  A    between atoms: _266  and  _267
REMARK  121  A    between atoms: _270  and  _272
REMARK  122  A    between atoms: _272  and  _273
REMARK  123  A    between atoms: _272  and  _275
REMARK  124  A    between atoms: _275  and  _276
REMARK  125  A    between atoms: _281  and  _283
REMARK  126  A    between atoms: _283  and  _284
REMARK  127  A    between atoms: _283  and  _286
REMARK  128  A    between atoms: _286  and  _287
REMARK  129  A    between atoms: _292  and  _294
REMARK  130  A    between atoms: _294  and  _295
REMARK  131  A    between atoms: _294  and  _297
REMARK  132  A    between atoms: _297  and  _298
REMARK  133  A    between atoms: _301  and  _303
REMARK  134  A    between atoms: _303  and  _304
REMARK  135  A    between atoms: _306  and  _308
REMARK  136  A    between atoms: _308  and  _309
REMARK  137  A    between atoms: _308  and  _311
REMARK  138  A    between atoms: _311  and  _312
REMARK  139  A    between atoms: _315  and  _317
REMARK  140  A    between atoms: _317  and  _318
REMARK  141  A    between atoms: _317  and  _320
REMARK  142  A    between atoms: _320  and  _321
REMARK  143  A    between atoms: _324  and  _326
REMARK  144  A    between atoms: _326  and  _327
REMARK  145  A    between atoms: _330  and  _332
REMARK  146  A    between atoms: _332  and  _333
REMARK  147  A    between atoms: _332  and  _335
REMARK  148  A    between atoms: _335  and  _336
REMARK  149  A    between atoms: _336  and  _337
REMARK  150  A    between atoms: _337  and  _338
REMARK  151  A    between atoms: _338  and  _339
REMARK  152  A    between atoms: _343  and  _345
REMARK  153  A    between atoms: _345  and  _346
REMARK  154  A    between atoms: _348  and  _350
REMARK  155  A    between atoms: _350  and  _351
REMARK  156  A    between atoms: _350  and  _353
REMARK  157  A    between atoms: _353  and  _354
REMARK  158  A    between atoms: _357  and  _359
REMARK  159  A    between atoms: _359  and  _360
REMARK  160  A    between atoms: _362  and  _364
REMARK  161  A    between atoms: _364  and  _365
REMARK  162  A    between atoms: _364  and  _367
REMARK  163  A    between atoms: _367  and  _368
REMARK  164  A    between atoms: _374  and  _376
REMARK  165  A    between atoms: _376  and  _377
REMARK  166  A    between atoms: _379  and  _381
REMARK  167  A    between atoms: _381  and  _382
REMARK  168  A    between atoms: _381  and  _384
REMARK  169  A    between atoms: _387  and  _389
REMARK  170  A    between atoms: _389  and  _390
REMARK  171  A    between atoms: _392  and  _394
REMARK  172  A    between atoms: _394  and  _395
REMARK  173  A    between atoms: _394  and  _397
REMARK  174  A    between atoms: _397  and  _398
REMARK  175  A    between atoms: _404  and  _406
REMARK  176  A    between atoms: _406  and  _407
REMARK  177  A    between atoms: _406  and  _409
REMARK  178  A    between atoms: _409  and  _410
REMARK  179  A    between atoms: _415  and  _416
REMARK  180  A    between atoms: _418  and  _420
REMARK  181  A    between atoms: _420  and  _421
REMARK  182  A    between atoms: _420  and  _423
REMARK  183  A    between atoms: _423  and  _424
REMARK  184  A    between atoms: _429  and  _430
REMARK  185  A    between atoms: _432  and  _434
REMARK  186  A    between atoms: _434  and  _435
REMARK  187  A    between atoms: _434  and  _437
REMARK  188  A    between atoms: _440  and  _442
REMARK  189  A    between atoms: _442  and  _443
REMARK  190  A    between atoms: _442  and  _445
REMARK  191  A    between atoms: _445  and  _446
REMARK  192  A    between atoms: _449  and  _451
REMARK  193  A    between atoms: _451  and  _452
REMARK  194  A    between atoms: _451  and  _454
REMARK  195  A    between atoms: _457  and  _459
REMARK  196  A    between atoms: _459  and  _460
REMARK  197  A    between atoms: _459  and  _462
REMARK  198  A    between atoms: _462  and  _463
REMARK  199  A    between atoms: _466  and  _468
REMARK  200  A    between atoms: _468  and  _469
REMARK  201  A    between atoms: _468  and  _471
REMARK  202  A    between atoms: _471  and  _472
REMARK  203  A    between atoms: _475  and  _477
REMARK  204  A    between atoms: _477  and  _478
REMARK  205  A    between atoms: _477  and  _480
REMARK  206  A    between atoms: _480  and  _481
REMARK  207  A    between atoms: _481  and  _482
REMARK  208  A    between atoms: _482  and  _483
REMARK  209  A    between atoms: _483  and  _484
REMARK  210  A    between atoms: _488  and  _490
REMARK  211  A    between atoms: _490  and  _491
REMARK  212  A    between atoms: _490  and  _493
REMARK  213  A    between atoms: _493  and  _494
REMARK  214  A    between atoms: _504  and  _506
REMARK  215  A    between atoms: _506  and  _507
REMARK  216  A    between atoms: _506  and  _509
REMARK  217  A    between atoms: _509  and  _510
REMARK  218  A    between atoms: _510  and  _511
REMARK  219  A    between atoms: _514  and  _516
REMARK  220  A    between atoms: _516  and  _517
REMARK  221  A    between atoms: _516  and  _519
REMARK  222  A    between atoms: _519  and  _520
REMARK  223  A    between atoms: _522  and  _524
REMARK  224  A    between atoms: _524  and  _525
REMARK  225  A    between atoms: _524  and  _527
REMARK  226  A    between atoms: _527  and  _528
REMARK  227  A    between atoms: _534  and  _536
REMARK  228  A    between atoms: _536  and  _537
REMARK  229  A    between atoms: _536  and  _539
REMARK  230  A    between atoms: _539  and  _540
REMARK  231  A    between atoms: _543  and  _545
REMARK  232  A    between atoms: _545  and  _546
REMARK  233  A    between atoms: _545  and  _548
REMARK  234  A    between atoms: _551  and  _553
REMARK  235  A    between atoms: _553  and  _554
REMARK  236  A    between atoms: _556  and  _558
REMARK  237  A    between atoms: _558  and  _559
REMARK  238  A    between atoms: _558  and  _561
REMARK  239  A    between atoms: _561  and  _562
REMARK  240  A    between atoms: _565  and  _567
REMARK  241  A    between atoms: _567  and  _568
REMARK  242  A    between atoms: _567  and  _570
REMARK  243  A    between atoms: _570  and  _571
REMARK  244  A    between atoms: _571  and  _572
REMARK  245  A    between atoms: _572  and  _573
REMARK  246  A    between atoms: _573  and  _574
REMARK  247  A    between atoms: _578  and  _580
REMARK  248  A    between atoms: _580  and  _581
REMARK  249  A    between atoms: _580  and  _583
REMARK                            x       y       z     vdW  Elec       q    Type
REMARK                         _______ _______ _______ _____ _____    ______ ____
ROOT
ATOM      1  O   HOH     1       5.070  -8.881 -19.823  0.00  0.00    +0.000 OA
ENDROOT
TORSDOF 0
REMARK  Name = ../refined-set-2016/4o07/4o07_pocket.pdb
REMARK  249 active torsions:
REMARK  status: ('A' for Active; 'I' for Inactive)
REMARK    1  A    between atoms: _1  and  _3
REMARK    2  A    between atoms: _3  and  _4
REMARK    3  A    between atoms: _3  and  _6
REMARK    4  A    between atoms: _6  and  _7
REMARK    5  A    between atoms: _13  and  _15
REMARK    6  A    between atoms: _15  and  _16
REMARK    7  A    between atoms: _15  and  _18
REMARK    8  A    between atoms: _18  and  _19
REMARK    9  A    between atoms: _19  and  _20
REMARK   10  A    between atoms: _25  and  _27
REMARK   11  A    between atoms: _27  and  _28
REMARK   12  A    between atoms: _27  and  _30
REMARK   13  A    between atoms: _30  and  _31
REMARK   14  A    between atoms: _34  and  _36
REMARK   15  A    between atoms: _36  and  _37
REMARK   16  A    between atoms: _36  and  _39
REMARK   17  A    between atoms: _39  and  _40
REMARK   18  A    between atoms: _40  and  _41
REMARK   19  A    between atoms: _44  and  _46
REMARK   20  A    between atoms: _46  and  _47
REMARK   21  A    between atoms: _46  and  _49
REMARK   22  A    between atoms: _49  and  _50
REMARK   23  A    between atoms: _53  and  _55
REMARK   24  A    between atoms: _55  and  _56
REMARK   25  A    between atoms: _55  and  _58
REMARK   26  A    between atoms: _58  and  _59
REMARK   27  A    between atoms: _62  and  _64
REMARK   28  A    between atoms: _64  and  _65
REMARK   29  A    between atoms: _64  and  _67
REMARK   30  A    between atoms: _67  and  _68
REMARK   31  A    between atoms: _70  and  _72
REMARK   32  A    between atoms: _72  and  _73
REMARK   33  A    between atoms: _72  and  _75
REMARK   34  A    between atoms: _75  and  _76
REMARK   35  A    between atoms: _81  and  _83
REMARK   36  A    between atoms: _83  and  _84
REMARK   37  A    between atoms: _83  and  _86
REMARK   38  A    between atoms: _86  and  _87
REMARK   39  A    between atoms: _89  and  _91
REMARK   40  A    between atoms: _91  and  _92
REMARK   41  A    between atoms: _91  and  _94
REMARK   42  A    between atoms: _94  and  _95
REMARK   43  A    between atoms: _97  and  _99
REMARK   44  A    between atoms: _99  and  _100
REMARK   45  A    between atoms: _99  and  _102
REMARK   46  A    between atoms: _102  and  _103
REMARK   47  A    between atoms: _106  and  _108
REMARK   48  A    between atoms: _108  and  _109
REMARK   49  A    between atoms: _112  and  _114
REMARK   50  A    between atoms: _114  and  _115
REMARK   51  A    between atoms: _114  and  _117
REMARK   52  A    between atoms: _117  and  _118
REMARK   53  A    between atoms: _121  and  _123
REMARK   54  A    between atoms: _123  and  _124
REMARK   55  A    between atoms: _123  and  _126
REMARK   56  A    between atoms: _126  and  _127
REMARK   57  A    between atoms: _130  and  _132
REMARK   58  A    between atoms: _132  and  _133
REMARK   59  A    between atoms: _132  and  _135
REMARK   60  A    between atoms: _135  and  _136
REMARK   61  A    between atoms: _136  and  _137
REMARK   62  A    between atoms: _137  and  _138
REMARK   63  A    between atoms: _138  and  _139
REMARK   64  A    between atoms: _143  and  _145
REMARK   65  A    between atoms: _145  and  _146
REMARK   66  A    between atoms: _145  and  _148
REMARK   67  A    between atoms: _148  and  _149
REMARK   68  A    between atoms: _152  and  _154
REMARK   69  A    between atoms: _154  and  _155
REMARK   70  A    between atoms: _154  and  _157
REMARK   71  A    between atoms: _157  and  _158
REMARK   72  A    between atoms: _161  and  _163
REMARK   73  A    between atoms: _163  and  _164
REMARK   74  A    between atoms: _163  and  _166
REMARK   75  A    between atoms: _169  and  _171
REMARK   76  A    between atoms: _171  and  _172
REMARK   77  A    between atoms: _171  and  _174
REMARK   78  A    between atoms: _174  and  _175
REMARK   79  A    between atoms: _178  and  _180
REMARK   80  A    between atoms: _180  and  _181
REMARK   81  A    between atoms: _180  and  _183
REMARK   82  A    between atoms: _183  and  _184
REMARK   83  A    between atoms: _187  and  _189
REMARK   84  A    between atoms: _189  and  _190
REMARK   85  A    between atoms: _192  and  _194
REMARK   86  A    between atoms: _194  and  _195
REMARK   87  A    between atoms: _194  and  _197
REMARK   88  A    between atoms: _197  and  _198
REMARK   89  A    between atoms: _201  and  _203
REMARK   90  A    between atoms: _203  and  _204
REMARK   91  A    between atoms: _206  and  _208
REMARK   92  A    between atoms: _208  and  _209
REMARK   93  A    between atoms: _208  and  _211
REMARK   94  A    between atoms: _211  and  _212
REMARK   95  A    between atoms: _212  and  _213
REMARK   96  A    between atoms: _215  and  _217
REMARK   97  A    between atoms: _217  and  _218
REMARK   98  A    between atoms: _217  and  _220
REMARK   99  A    between atoms: _220  and  _221
REMARK  100  A    between atoms: _224  and  _226
REMARK  101  A    between atoms: _226  and  _227
REMARK  102  A    between atoms: _226  and  _229
REMARK  103  A    between atoms: _229  and  _230
REMARK  104  A    between atoms: _230  and  _231
REMARK  105  A    between atoms: _231  and  _232
REMARK  106  A    between atoms: _232  and  _233
REMARK  107  A    between atoms: _237  and  _239
REMARK  108  A    between atoms: _239  and  _240
REMARK  109  A    between atoms: _243  and  _245
REMARK  110  A    between atoms: _245  and  _246
REMARK  111  A    between atoms: _245  and  _248
REMARK  112  A    between atoms: _248  and  _249
REMARK  113  A    between atoms: _252  and  _254
REMARK  114  A    between atoms: _254  and  _255
REMARK  115  A    between atoms: _254  and  _257
REMARK  116  A    between atoms: _257  and  _258
REMARK  117  A    between atoms: _261  and  _263
REMARK  118  A    between atoms: _263  and  _264
REMARK  119  A    between atoms: _263  and  _266
REMARK  120  A    between atoms: _266  and  _267
REMARK  121  A    between atoms: _270  and  _272
REMARK  122  A    between atoms: _272  and  _273
REMARK  123  A    between atoms: _272  and  _275
REMARK  124  A    between atoms: _275  and  _276
REMARK  125  A    between atoms: _281  and  _283
REMARK  126  A    between atoms: _283  and  _284
REMARK  127  A    between atoms: _283  and  _286
REMARK  128  A    between atoms: _286  and  _287
REMARK  129  A    between atoms: _292  and  _294
REMARK  130  A    between atoms: _294  and  _295
REMARK  131  A    between atoms: _294  and  _297
REMARK  132  A    between atoms: _297  and  _298
REMARK  133  A    between atoms: _301  and  _303
REMARK  134  A    between atoms: _303  and  _304
REMARK  135  A    between atoms: _306  and  _308
REMARK  136  A    between atoms: _308  and  _309
REMARK  137  A    between atoms: _308  and  _311
REMARK  138  A    between atoms: _311  and  _312
REMARK  139  A    between atoms: _315  and  _317
REMARK  140  A    between atoms: _317  and  _318
REMARK  141  A    between atoms: _317  and  _320
REMARK  142  A    between atoms: _320  and  _321
REMARK  143  A    between atoms: _324  and  _326
REMARK  144  A    between atoms: _326  and  _327
REMARK  145  A    between atoms: _330  and  _332
REMARK  146  A    between atoms: _332  and  _333
REMARK  147  A    between atoms: _332  and  _335
REMARK  148  A    between atoms: _335  and  _336
REMARK  149  A    between atoms: _336  and  _337
REMARK  150  A    between atoms: _337  and  _338
REMARK  151  A    between atoms: _338  and  _339
REMARK  152  A    between atoms: _343  and  _345
REMARK  153  A    between atoms: _345  and  _346
REMARK  154  A    between atoms: _348  and  _350
REMARK  155  A    between atoms: _350  and  _351
REMARK  156  A    between atoms: _350  and  _353
REMARK  157  A    between atoms: _353  and  _354
REMARK  158  A    between atoms: _357  and  _359
REMARK  159  A    between atoms: _359  and  _360
REMARK  160  A    between atoms: _362  and  _364
REMARK  161  A    between atoms: _364  and  _365
REMARK  162  A    between atoms: _364  and  _367
REMARK  163  A    between atoms: _367  and  _368
REMARK  164  A    between atoms: _374  and  _376
REMARK  165  A    between atoms: _376  and  _377
REMARK  166  A    between atoms: _379  and  _381
REMARK  167  A    between atoms: _381  and  _382
REMARK  168  A    between atoms: _381  and  _384
REMARK  169  A    between atoms: _387  and  _389
REMARK  170  A    between atoms: _389  and  _390
REMARK  171  A    between atoms: _392  and  _394
REMARK  172  A    between atoms: _394  and  _395
REMARK  173  A    between atoms: _394  and  _397
REMARK  174  A    between atoms: _397  and  _398
REMARK  175  A    between atoms: _404  and  _406
REMARK  176  A    between atoms: _406  and  _407
REMARK  177  A    between atoms: _406  and  _409
REMARK  178  A    between atoms: _409  and  _410
REMARK  179  A    between atoms: _415  and  _416
REMARK  180  A    between atoms: _418  and  _420
REMARK  181  A    between atoms: _420  and  _421
REMARK  182  A    between atoms: _420  and  _423
REMARK  183  A    between atoms: _423  and  _424
REMARK  184  A    between atoms: _429  and  _430
REMARK  185  A    between atoms: _432  and  _434
REMARK  186  A    between atoms: _434  and  _435
REMARK  187  A    between atoms: _434  and  _437
REMARK  188  A    between atoms: _440  and  _442
REMARK  189  A    between atoms: _442  and  _443
REMARK  190  A    between atoms: _442  and  _445
REMARK  191  A    between atoms: _445  and  _446
REMARK  192  A    between atoms: _449  and  _451
REMARK  193  A    between atoms: _451  and  _452
REMARK  194  A    between atoms: _451  and  _454
REMARK  195  A    between atoms: _457  and  _459
REMARK  196  A    between atoms: _459  and  _460
REMARK  197  A    between atoms: _459  and  _462
REMARK  198  A    between atoms: _462  and  _463
REMARK  199  A    between atoms: _466  and  _468
REMARK  200  A    between atoms: _468  and  _469
REMARK  201  A    between atoms: _468  and  _471
REMARK  202  A    between atoms: _471  and  _472
REMARK  203  A    between atoms: _475  and  _477
REMARK  204  A    between atoms: _477  and  _478
REMARK  205  A    between atoms: _477  and  _480
REMARK  206  A    between atoms: _480  and  _481
REMARK  207  A    between atoms: _481  and  _482
REMARK  208  A    between atoms: _482  and  _483
REMARK  209  A    between atoms: _483  and  _484
REMARK  210  A    between atoms: _488  and  _490
REMARK  211  A    between atoms: _490  and  _491
REMARK  212  A    between atoms: _490  and  _493
REMARK  213  A    between atoms: _493  and  _494
REMARK  214  A    between atoms: _504  and  _506
REMARK  215  A    between atoms: _506  and  _507
REMARK  216  A    between atoms: _506  and  _509
REMARK  217  A    between atoms: _509  and  _510
REMARK  218  A    between atoms: _510  and  _511
REMARK  219  A    between atoms: _514  and  _516
REMARK  220  A    between atoms: _516  and  _517
REMARK  221  A    between atoms: _516  and  _519
REMARK  222  A    between atoms: _519  and  _520
REMARK  223  A    between atoms: _522  and  _524
REMARK  224  A    between atoms: _524  and  _525
REMARK  225  A    between atoms: _524  and  _527
REMARK  226  A    between atoms: _527  and  _528
REMARK  227  A    between atoms: _534  and  _536
REMARK  228  A    between atoms: _536  and  _537
REMARK  229  A    between atoms: _536  and  _539
REMARK  230  A    between atoms: _539  and  _540
REMARK  231  A    between atoms: _543  and  _545
REMARK  232  A    between atoms: _545  and  _546
REMARK  233  A    between atoms: _545  and  _548
REMARK  234  A    between atoms: _551  and  _553
REMARK  235  A    between atoms: _553  and  _554
REMARK  236  A    between atoms: _556  and  _558
REMARK  237  A    between atoms: _558  and  _559
REMARK  238  A    between atoms: _558  and  _561
REMARK  239  A    between atoms: _561  and  _562
REMARK  240  A    between atoms: _565  and  _567
REMARK  241  A    between atoms: _567  and  _568
REMARK  242  A    between atoms: _567  and  _570
REMARK  243  A    between atoms: _570  and  _571
REMARK  244  A    between atoms: _571  and  _572
REMARK  245  A    between atoms: _572  and  _573
REMARK  246  A    between atoms: _573  and  _574
REMARK  247  A    between atoms: _578  and  _580
REMARK  248  A    between atoms: _580  and  _581
REMARK  249  A    between atoms: _580  and  _583
REMARK                            x       y       z     vdW  Elec       q    Type
REMARK                         _______ _______ _______ _____ _____    ______ ____
ROOT
ATOM      1  O   HOH     1      -3.744 -11.471 -28.004  0.00  0.00    +0.000 OA
ENDROOT
TORSDOF 0
REMARK  Name = ../refined-set-2016/4o07/4o07_pocket.pdb
REMARK  249 active torsions:
REMARK  status: ('A' for Active; 'I' for Inactive)
REMARK    1  A    between atoms: _1  and  _3
REMARK    2  A    between atoms: _3  and  _4
REMARK    3  A    between atoms: _3  and  _6
REMARK    4  A    between atoms: _6  and  _7
REMARK    5  A    between atoms: _13  and  _15
REMARK    6  A    between atoms: _15  and  _16
REMARK    7  A    between atoms: _15  and  _18
REMARK    8  A    between atoms: _18  and  _19
REMARK    9  A    between atoms: _19  and  _20
REMARK   10  A    between atoms: _25  and  _27
REMARK   11  A    between atoms: _27  and  _28
REMARK   12  A    between atoms: _27  and  _30
REMARK   13  A    between atoms: _30  and  _31
REMARK   14  A    between atoms: _34  and  _36
REMARK   15  A    between atoms: _36  and  _37
REMARK   16  A    between atoms: _36  and  _39
REMARK   17  A    between atoms: _39  and  _40
REMARK   18  A    between atoms: _40  and  _41
REMARK   19  A    between atoms: _44  and  _46
REMARK   20  A    between atoms: _46  and  _47
REMARK   21  A    between atoms: _46  and  _49
REMARK   22  A    between atoms: _49  and  _50
REMARK   23  A    between atoms: _53  and  _55
REMARK   24  A    between atoms: _55  and  _56
REMARK   25  A    between atoms: _55  and  _58
REMARK   26  A    between atoms: _58  and  _59
REMARK   27  A    between atoms: _62  and  _64
REMARK   28  A    between atoms: _64  and  _65
REMARK   29  A    between atoms: _64  and  _67
REMARK   30  A    between atoms: _67  and  _68
REMARK   31  A    between atoms: _70  and  _72
REMARK   32  A    between atoms: _72  and  _73
REMARK   33  A    between atoms: _72  and  _75
REMARK   34  A    between atoms: _75  and  _76
REMARK   35  A    between atoms: _81  and  _83
REMARK   36  A    between atoms: _83  and  _84
REMARK   37  A    between atoms: _83  and  _86
REMARK   38  A    between atoms: _86  and  _87
REMARK   39  A    between atoms: _89  and  _91
REMARK   40  A    between atoms: _91  and  _92
REMARK   41  A    between atoms: _91  and  _94
REMARK   42  A    between atoms: _94  and  _95
REMARK   43  A    between atoms: _97  and  _99
REMARK   44  A    between atoms: _99  and  _100
REMARK   45  A    between atoms: _99  and  _102
REMARK   46  A    between atoms: _102  and  _103
REMARK   47  A    between atoms: _106  and  _108
REMARK   48  A    between atoms: _108  and  _109
REMARK   49  A    between atoms: _112  and  _114
REMARK   50  A    between atoms: _114  and  _115
REMARK   51  A    between atoms: _114  and  _117
REMARK   52  A    between atoms: _117  and  _118
REMARK   53  A    between atoms: _121  and  _123
REMARK   54  A    between atoms: _123  and  _124
REMARK   55  A    between atoms: _123  and  _126
REMARK   56  A    between atoms: _126  and  _127
REMARK   57  A    between atoms: _130  and  _132
REMARK   58  A    between atoms: _132  and  _133
REMARK   59  A    between atoms: _132  and  _135
REMARK   60  A    between atoms: _135  and  _136
REMARK   61  A    between atoms: _136  and  _137
REMARK   62  A    between atoms: _137  and  _138
REMARK   63  A    between atoms: _138  and  _139
REMARK   64  A    between atoms: _143  and  _145
REMARK   65  A    between atoms: _145  and  _146
REMARK   66  A    between atoms: _145  and  _148
REMARK   67  A    between atoms: _148  and  _149
REMARK   68  A    between atoms: _152  and  _154
REMARK   69  A    between atoms: _154  and  _155
REMARK   70  A    between atoms: _154  and  _157
REMARK   71  A    between atoms: _157  and  _158
REMARK   72  A    between atoms: _161  and  _163
REMARK   73  A    between atoms: _163  and  _164
REMARK   74  A    between atoms: _163  and  _166
REMARK   75  A    between atoms: _169  and  _171
REMARK   76  A    between atoms: _171  and  _172
REMARK   77  A    between atoms: _171  and  _174
REMARK   78  A    between atoms: _174  and  _175
REMARK   79  A    between atoms: _178  and  _180
REMARK   80  A    between atoms: _180  and  _181
REMARK   81  A    between atoms: _180  and  _183
REMARK   82  A    between atoms: _183  and  _184
REMARK   83  A    between atoms: _187  and  _189
REMARK   84  A    between atoms: _189  and  _190
REMARK   85  A    between atoms: _192  and  _194
REMARK   86  A    between atoms: _194  and  _195
REMARK   87  A    between atoms: _194  and  _197
REMARK   88  A    between atoms: _197  and  _198
REMARK   89  A    between atoms: _201  and  _203
REMARK   90  A    between atoms: _203  and  _204
REMARK   91  A    between atoms: _206  and  _208
REMARK   92  A    between atoms: _208  and  _209
REMARK   93  A    between atoms: _208  and  _211
REMARK   94  A    between atoms: _211  and  _212
REMARK   95  A    between atoms: _212  and  _213
REMARK   96  A    between atoms: _215  and  _217
REMARK   97  A    between atoms: _217  and  _218
REMARK   98  A    between atoms: _217  and  _220
REMARK   99  A    between atoms: _220  and  _221
REMARK  100  A    between atoms: _224  and  _226
REMARK  101  A    between atoms: _226  and  _227
REMARK  102  A    between atoms: _226  and  _229
REMARK  103  A    between atoms: _229  and  _230
REMARK  104  A    between atoms: _230  and  _231
REMARK  105  A    between atoms: _231  and  _232
REMARK  106  A    between atoms: _232  and  _233
REMARK  107  A    between atoms: _237  and  _239
REMARK  108  A    between atoms: _239  and  _240
REMARK  109  A    between atoms: _243  and  _245
REMARK  110  A    between atoms: _245  and  _246
REMARK  111  A    between atoms: _245  and  _248
REMARK  112  A    between atoms: _248  and  _249
REMARK  113  A    between atoms: _252  and  _254
REMARK  114  A    between atoms: _254  and  _255
REMARK  115  A    between atoms: _254  and  _257
REMARK  116  A    between atoms: _257  and  _258
REMARK  117  A    between atoms: _261  and  _263
REMARK  118  A    between atoms: _263  and  _264
REMARK  119  A    between atoms: _263  and  _266
REMARK  120  A    between atoms: _266  and  _267
REMARK  121  A    between atoms: _270  and  _272
REMARK  122  A    between atoms: _272  and  _273
REMARK  123  A    between atoms: _272  and  _275
REMARK  124  A    between atoms: _275  and  _276
REMARK  125  A    between atoms: _281  and  _283
REMARK  126  A    between atoms: _283  and  _284
REMARK  127  A    between atoms: _283  and  _286
REMARK  128  A    between atoms: _286  and  _287
REMARK  129  A    between atoms: _292  and  _294
REMARK  130  A    between atoms: _294  and  _295
REMARK  131  A    between atoms: _294  and  _297
REMARK  132  A    between atoms: _297  and  _298
REMARK  133  A    between atoms: _301  and  _303
REMARK  134  A    between atoms: _303  and  _304
REMARK  135  A    between atoms: _306  and  _308
REMARK  136  A    between atoms: _308  and  _309
REMARK  137  A    between atoms: _308  and  _311
REMARK  138  A    between atoms: _311  and  _312
REMARK  139  A    between atoms: _315  and  _317
REMARK  140  A    between atoms: _317  and  _318
REMARK  141  A    between atoms: _317  and  _320
REMARK  142  A    between atoms: _320  and  _321
REMARK  143  A    between atoms: _324  and  _326
REMARK  144  A    between atoms: _326  and  _327
REMARK  145  A    between atoms: _330  and  _332
REMARK  146  A    between atoms: _332  and  _333
REMARK  147  A    between atoms: _332  and  _335
REMARK  148  A    between atoms: _335  and  _336
REMARK  149  A    between atoms: _336  and  _337
REMARK  150  A    between atoms: _337  and  _338
REMARK  151  A    between atoms: _338  and  _339
REMARK  152  A    between atoms: _343  and  _345
REMARK  153  A    between atoms: _345  and  _346
REMARK  154  A    between atoms: _348  and  _350
REMARK  155  A    between atoms: _350  and  _351
REMARK  156  A    between atoms: _350  and  _353
REMARK  157  A    between atoms: _353  and  _354
REMARK  158  A    between atoms: _357  and  _359
REMARK  159  A    between atoms: _359  and  _360
REMARK  160  A    between atoms: _362  and  _364
REMARK  161  A    between atoms: _364  and  _365
REMARK  162  A    between atoms: _364  and  _367
REMARK  163  A    between atoms: _367  and  _368
REMARK  164  A    between atoms: _374  and  _376
REMARK  165  A    between atoms: _376  and  _377
REMARK  166  A    between atoms: _379  and  _381
REMARK  167  A    between atoms: _381  and  _382
REMARK  168  A    between atoms: _381  and  _384
REMARK  169  A    between atoms: _387  and  _389
REMARK  170  A    between atoms: _389  and  _390
REMARK  171  A    between atoms: _392  and  _394
REMARK  172  A    between atoms: _394  and  _395
REMARK  173  A    between atoms: _394  and  _397
REMARK  174  A    between atoms: _397  and  _398
REMARK  175  A    between atoms: _404  and  _406
REMARK  176  A    between atoms: _406  and  _407
REMARK  177  A    between atoms: _406  and  _409
REMARK  178  A    between atoms: _409  and  _410
REMARK  179  A    between atoms: _415  and  _416
REMARK  180  A    between atoms: _418  and  _420
REMARK  181  A    between atoms: _420  and  _421
REMARK  182  A    between atoms: _420  and  _423
REMARK  183  A    between atoms: _423  and  _424
REMARK  184  A    between atoms: _429  and  _430
REMARK  185  A    between atoms: _432  and  _434
REMARK  186  A    between atoms: _434  and  _435
REMARK  187  A    between atoms: _434  and  _437
REMARK  188  A    between atoms: _440  and  _442
REMARK  189  A    between atoms: _442  and  _443
REMARK  190  A    between atoms: _442  and  _445
REMARK  191  A    between atoms: _445  and  _446
REMARK  192  A    between atoms: _449  and  _451
REMARK  193  A    between atoms: _451  and  _452
REMARK  194  A    between atoms: _451  and  _454
REMARK  195  A    between atoms: _457  and  _459
REMARK  196  A    between atoms: _459  and  _460
REMARK  197  A    between atoms: _459  and  _462
REMARK  198  A    between atoms: _462  and  _463
REMARK  199  A    between atoms: _466  and  _468
REMARK  200  A    between atoms: _468  and  _469
REMARK  201  A    between atoms: _468  and  _471
REMARK  202  A    between atoms: _471  and  _472
REMARK  203  A    between atoms: _475  and  _477
REMARK  204  A    between atoms: _477  and  _478
REMARK  205  A    between atoms: _477  and  _480
REMARK  206  A    between atoms: _480  and  _481
REMARK  207  A    between atoms: _481  and  _482
REMARK  208  A    between atoms: _482  and  _483
REMARK  209  A    between atoms: _483  and  _484
REMARK  210  A    between atoms: _488  and  _490
REMARK  211  A    between atoms: _490  and  _491
REMARK  212  A    between atoms: _490  and  _493
REMARK  213  A    between atoms: _493  and  _494
REMARK  214  A    between atoms: _504  and  _506
REMARK  215  A    between atoms: _506  and  _507
REMARK  216  A    between atoms: _506  and  _509
REMARK  217  A    between atoms: _509  and  _510
REMARK  218  A    between atoms: _510  and  _511
REMARK  219  A    between atoms: _514  and  _516
REMARK  220  A    between atoms: _516  and  _517
REMARK  221  A    between atoms: _516  and  _519
REMARK  222  A    between atoms: _519  and  _520
REMARK  223  A    between atoms: _522  and  _524
REMARK  224  A    between atoms: _524  and  _525
REMARK  225  A    between atoms: _524  and  _527
REMARK  226  A    between atoms: _527  and  _528
REMARK  227  A    between atoms: _534  and  _536
REMARK  228  A    between atoms: _536  and  _537
REMARK  229  A    between atoms: _536  and  _539
REMARK  230  A    between atoms: _539  and  _540
REMARK  231  A    between atoms: _543  and  _545
REMARK  232  A    between atoms: _545  and  _546
REMARK  233  A    between atoms: _545  and  _548
REMARK  234  A    between atoms: _551  and  _553
REMARK  235  A    between atoms: _553  and  _554
REMARK  236  A    between atoms: _556  and  _558
REMARK  237  A    between atoms: _558  and  _559
REMARK  238  A    between atoms: _558  and  _561
REMARK  239  A    between atoms: _561  and  _562
REMARK  240  A    between atoms: _565  and  _567
REMARK  241  A    between atoms: _567  and  _568
REMARK  242  A    between atoms: _567  and  _570
REMARK  243  A    between atoms: _570  and  _571
REMARK  244  A    between atoms: _571  and  _572
REMARK  245  A    between atoms: _572  and  _573
REMARK  246  A    between atoms: _573  and  _574
REMARK  247  A    between atoms: _578  and  _580
REMARK  248  A    between atoms: _580  and  _581
REMARK  249  A    between atoms: _580  and  _583
REMARK                            x       y       z     vdW  Elec       q    Type
REMARK                         _______ _______ _______ _____ _____    ______ ____
ROOT
ATOM      1  O   HOH     1      -2.143  -1.850 -25.550  0.00  0.00    +0.000 OA
ENDROOT
TORSDOF 0
REMARK  Name = ../refined-set-2016/4o07/4o07_pocket.pdb
REMARK  249 active torsions:
REMARK  status: ('A' for Active; 'I' for Inactive)
REMARK    1  A    between atoms: _1  and  _3
REMARK    2  A    between atoms: _3  and  _4
REMARK    3  A    between atoms: _3  and  _6
REMARK    4  A    between atoms: _6  and  _7
REMARK    5  A    between atoms: _13  and  _15
REMARK    6  A    between atoms: _15  and  _16
REMARK    7  A    between atoms: _15  and  _18
REMARK    8  A    between atoms: _18  and  _19
REMARK    9  A    between atoms: _19  and  _20
REMARK   10  A    between atoms: _25  and  _27
REMARK   11  A    between atoms: _27  and  _28
REMARK   12  A    between atoms: _27  and  _30
REMARK   13  A    between atoms: _30  and  _31
REMARK   14  A    between atoms: _34  and  _36
REMARK   15  A    between atoms: _36  and  _37
REMARK   16  A    between atoms: _36  and  _39
REMARK   17  A    between atoms: _39  and  _40
REMARK   18  A    between atoms: _40  and  _41
REMARK   19  A    between atoms: _44  and  _46
REMARK   20  A    between atoms: _46  and  _47
REMARK   21  A    between atoms: _46  and  _49
REMARK   22  A    between atoms: _49  and  _50
REMARK   23  A    between atoms: _53  and  _55
REMARK   24  A    between atoms: _55  and  _56
REMARK   25  A    between atoms: _55  and  _58
REMARK   26  A    between atoms: _58  and  _59
REMARK   27  A    between atoms: _62  and  _64
REMARK   28  A    between atoms: _64  and  _65
REMARK   29  A    between atoms: _64  and  _67
REMARK   30  A    between atoms: _67  and  _68
REMARK   31  A    between atoms: _70  and  _72
REMARK   32  A    between atoms: _72  and  _73
REMARK   33  A    between atoms: _72  and  _75
REMARK   34  A    between atoms: _75  and  _76
REMARK   35  A    between atoms: _81  and  _83
REMARK   36  A    between atoms: _83  and  _84
REMARK   37  A    between atoms: _83  and  _86
REMARK   38  A    between atoms: _86  and  _87
REMARK   39  A    between atoms: _89  and  _91
REMARK   40  A    between atoms: _91  and  _92
REMARK   41  A    between atoms: _91  and  _94
REMARK   42  A    between atoms: _94  and  _95
REMARK   43  A    between atoms: _97  and  _99
REMARK   44  A    between atoms: _99  and  _100
REMARK   45  A    between atoms: _99  and  _102
REMARK   46  A    between atoms: _102  and  _103
REMARK   47  A    between atoms: _106  and  _108
REMARK   48  A    between atoms: _108  and  _109
REMARK   49  A    between atoms: _112  and  _114
REMARK   50  A    between atoms: _114  and  _115
REMARK   51  A    between atoms: _114  and  _117
REMARK   52  A    between atoms: _117  and  _118
REMARK   53  A    between atoms: _121  and  _123
REMARK   54  A    between atoms: _123  and  _124
REMARK   55  A    between atoms: _123  and  _126
REMARK   56  A    between atoms: _126  and  _127
REMARK   57  A    between atoms: _130  and  _132
REMARK   58  A    between atoms: _132  and  _133
REMARK   59  A    between atoms: _132  and  _135
REMARK   60  A    between atoms: _135  and  _136
REMARK   61  A    between atoms: _136  and  _137
REMARK   62  A    between atoms: _137  and  _138
REMARK   63  A    between atoms: _138  and  _139
REMARK   64  A    between atoms: _143  and  _145
REMARK   65  A    between atoms: _145  and  _146
REMARK   66  A    between atoms: _145  and  _148
REMARK   67  A    between atoms: _148  and  _149
REMARK   68  A    between atoms: _152  and  _154
REMARK   69  A    between atoms: _154  and  _155
REMARK   70  A    between atoms: _154  and  _157
REMARK   71  A    between atoms: _157  and  _158
REMARK   72  A    between atoms: _161  and  _163
REMARK   73  A    between atoms: _163  and  _164
REMARK   74  A    between atoms: _163  and  _166
REMARK   75  A    between atoms: _169  and  _171
REMARK   76  A    between atoms: _171  and  _172
REMARK   77  A    between atoms: _171  and  _174
REMARK   78  A    between atoms: _174  and  _175
REMARK   79  A    between atoms: _178  and  _180
REMARK   80  A    between atoms: _180  and  _181
REMARK   81  A    between atoms: _180  and  _183
REMARK   82  A    between atoms: _183  and  _184
REMARK   83  A    between atoms: _187  and  _189
REMARK   84  A    between atoms: _189  and  _190
REMARK   85  A    between atoms: _192  and  _194
REMARK   86  A    between atoms: _194  and  _195
REMARK   87  A    between atoms: _194  and  _197
REMARK   88  A    between atoms: _197  and  _198
REMARK   89  A    between atoms: _201  and  _203
REMARK   90  A    between atoms: _203  and  _204
REMARK   91  A    between atoms: _206  and  _208
REMARK   92  A    between atoms: _208  and  _209
REMARK   93  A    between atoms: _208  and  _211
REMARK   94  A    between atoms: _211  and  _212
REMARK   95  A    between atoms: _212  and  _213
REMARK   96  A    between atoms: _215  and  _217
REMARK   97  A    between atoms: _217  and  _218
REMARK   98  A    between atoms: _217  and  _220
REMARK   99  A    between atoms: _220  and  _221
REMARK  100  A    between atoms: _224  and  _226
REMARK  101  A    between atoms: _226  and  _227
REMARK  102  A    between atoms: _226  and  _229
REMARK  103  A    between atoms: _229  and  _230
REMARK  104  A    between atoms: _230  and  _231
REMARK  105  A    between atoms: _231  and  _232
REMARK  106  A    between atoms: _232  and  _233
REMARK  107  A    between atoms: _237  and  _239
REMARK  108  A    between atoms: _239  and  _240
REMARK  109  A    between atoms: _243  and  _245
REMARK  110  A    between atoms: _245  and  _246
REMARK  111  A    between atoms: _245  and  _248
REMARK  112  A    between atoms: _248  and  _249
REMARK  113  A    between atoms: _252  and  _254
REMARK  114  A    between atoms: _254  and  _255
REMARK  115  A    between atoms: _254  and  _257
REMARK  116  A    between atoms: _257  and  _258
REMARK  117  A    between atoms: _261  and  _263
REMARK  118  A    between atoms: _263  and  _264
REMARK  119  A    between atoms: _263  and  _266
REMARK  120  A    between atoms: _266  and  _267
REMARK  121  A    between atoms: _270  and  _272
REMARK  122  A    between atoms: _272  and  _273
REMARK  123  A    between atoms: _272  and  _275
REMARK  124  A    between atoms: _275  and  _276
REMARK  125  A    between atoms: _281  and  _283
REMARK  126  A    between atoms: _283  and  _284
REMARK  127  A    between atoms: _283  and  _286
REMARK  128  A    between atoms: _286  and  _287
REMARK  129  A    between atoms: _292  and  _294
REMARK  130  A    between atoms: _294  and  _295
REMARK  131  A    between atoms: _294  and  _297
REMARK  132  A    between atoms: _297  and  _298
REMARK  133  A    between atoms: _301  and  _303
REMARK  134  A    between atoms: _303  and  _304
REMARK  135  A    between atoms: _306  and  _308
REMARK  136  A    between atoms: _308  and  _309
REMARK  137  A    between atoms: _308  and  _311
REMARK  138  A    between atoms: _311  and  _312
REMARK  139  A    between atoms: _315  and  _317
REMARK  140  A    between atoms: _317  and  _318
REMARK  141  A    between atoms: _317  and  _320
REMARK  142  A    between atoms: _320  and  _321
REMARK  143  A    between atoms: _324  and  _326
REMARK  144  A    between atoms: _326  and  _327
REMARK  145  A    between atoms: _330  and  _332
REMARK  146  A    between atoms: _332  and  _333
REMARK  147  A    between atoms: _332  and  _335
REMARK  148  A    between atoms: _335  and  _336
REMARK  149  A    between atoms: _336  and  _337
REMARK  150  A    between atoms: _337  and  _338
REMARK  151  A    between atoms: _338  and  _339
REMARK  152  A    between atoms: _343  and  _345
REMARK  153  A    between atoms: _345  and  _346
REMARK  154  A    between atoms: _348  and  _350
REMARK  155  A    between atoms: _350  and  _351
REMARK  156  A    between atoms: _350  and  _353
REMARK  157  A    between atoms: _353  and  _354
REMARK  158  A    between atoms: _357  and  _359
REMARK  159  A    between atoms: _359  and  _360
REMARK  160  A    between atoms: _362  and  _364
REMARK  161  A    between atoms: _364  and  _365
REMARK  162  A    between atoms: _364  and  _367
REMARK  163  A    between atoms: _367  and  _368
REMARK  164  A    between atoms: _374  and  _376
REMARK  165  A    between atoms: _376  and  _377
REMARK  166  A    between atoms: _379  and  _381
REMARK  167  A    between atoms: _381  and  _382
REMARK  168  A    between atoms: _381  and  _384
REMARK  169  A    between atoms: _387  and  _389
REMARK  170  A    between atoms: _389  and  _390
REMARK  171  A    between atoms: _392  and  _394
REMARK  172  A    between atoms: _394  and  _395
REMARK  173  A    between atoms: _394  and  _397
REMARK  174  A    between atoms: _397  and  _398
REMARK  175  A    between atoms: _404  and  _406
REMARK  176  A    between atoms: _406  and  _407
REMARK  177  A    between atoms: _406  and  _409
REMARK  178  A    between atoms: _409  and  _410
REMARK  179  A    between atoms: _415  and  _416
REMARK  180  A    between atoms: _418  and  _420
REMARK  181  A    between atoms: _420  and  _421
REMARK  182  A    between atoms: _420  and  _423
REMARK  183  A    between atoms: _423  and  _424
REMARK  184  A    between atoms: _429  and  _430
REMARK  185  A    between atoms: _432  and  _434
REMARK  186  A    between atoms: _434  and  _435
REMARK  187  A    between atoms: _434  and  _437
REMARK  188  A    between atoms: _440  and  _442
REMARK  189  A    between atoms: _442  and  _443
REMARK  190  A    between atoms: _442  and  _445
REMARK  191  A    between atoms: _445  and  _446
REMARK  192  A    between atoms: _449  and  _451
REMARK  193  A    between atoms: _451  and  _452
REMARK  194  A    between atoms: _451  and  _454
REMARK  195  A    between atoms: _457  and  _459
REMARK  196  A    between atoms: _459  and  _460
REMARK  197  A    between atoms: _459  and  _462
REMARK  198  A    between atoms: _462  and  _463
REMARK  199  A    between atoms: _466  and  _468
REMARK  200  A    between atoms: _468  and  _469
REMARK  201  A    between atoms: _468  and  _471
REMARK  202  A    between atoms: _471  and  _472
REMARK  203  A    between atoms: _475  and  _477
REMARK  204  A    between atoms: _477  and  _478
REMARK  205  A    between atoms: _477  and  _480
REMARK  206  A    between atoms: _480  and  _481
REMARK  207  A    between atoms: _481  and  _482
REMARK  208  A    between atoms: _482  and  _483
REMARK  209  A    between atoms: _483  and  _484
REMARK  210  A    between atoms: _488  and  _490
REMARK  211  A    between atoms: _490  and  _491
REMARK  212  A    between atoms: _490  and  _493
REMARK  213  A    between atoms: _493  and  _494
REMARK  214  A    between atoms: _504  and  _506
REMARK  215  A    between atoms: _506  and  _507
REMARK  216  A    between atoms: _506  and  _509
REMARK  217  A    between atoms: _509  and  _510
REMARK  218  A    between atoms: _510  and  _511
REMARK  219  A    between atoms: _514  and  _516
REMARK  220  A    between atoms: _516  and  _517
REMARK  221  A    between atoms: _516  and  _519
REMARK  222  A    between atoms: _519  and  _520
REMARK  223  A    between atoms: _522  and  _524
REMARK  224  A    between atoms: _524  and  _525
REMARK  225  A    between atoms: _524  and  _527
REMARK  226  A    between atoms: _527  and  _528
REMARK  227  A    between atoms: _534  and  _536
REMARK  228  A    between atoms: _536  and  _537
REMARK  229  A    between atoms: _536  and  _539
REMARK  230  A    between atoms: _539  and  _540
REMARK  231  A    between atoms: _543  and  _545
REMARK  232  A    between atoms: _545  and  _546
REMARK  233  A    between atoms: _545  and  _548
REMARK  234  A    between atoms: _551  and  _553
REMARK  235  A    between atoms: _553  and  _554
REMARK  236  A    between atoms: _556  and  _558
REMARK  237  A    between atoms: _558  and  _559
REMARK  238  A    between atoms: _558  and  _561
REMARK  239  A    between atoms: _561  and  _562
REMARK  240  A    between atoms: _565  and  _567
REMARK  241  A    between atoms: _567  and  _568
REMARK  242  A    between atoms: _567  and  _570
REMARK  243  A    between atoms: _570  and  _571
REMARK  244  A    between atoms: _571  and  _572
REMARK  245  A    between atoms: _572  and  _573
REMARK  246  A    between atoms: _573  and  _574
REMARK  247  A    between atoms: _578  and  _580
REMARK  248  A    between atoms: _580  and  _581
REMARK  249  A    between atoms: _580  and  _583
REMARK                            x       y       z     vdW  Elec       q    Type
REMARK                         _______ _______ _______ _____ _____    ______ ____
ROOT
ATOM      1  O   HOH     1       1.249  -8.275 -31.221  0.00  0.00    +0.000 OA
ENDROOT
TORSDOF 0
REMARK  Name = ../refined-set-2016/4o07/4o07_pocket.pdb
REMARK  249 active torsions:
REMARK  status: ('A' for Active; 'I' for Inactive)
REMARK    1  A    between atoms: _1  and  _3
REMARK    2  A    between atoms: _3  and  _4
REMARK    3  A    between atoms: _3  and  _6
REMARK    4  A    between atoms: _6  and  _7
REMARK    5  A    between atoms: _13  and  _15
REMARK    6  A    between atoms: _15  and  _16
REMARK    7  A    between atoms: _15  and  _18
REMARK    8  A    between atoms: _18  and  _19
REMARK    9  A    between atoms: _19  and  _20
REMARK   10  A    between atoms: _25  and  _27
REMARK   11  A    between atoms: _27  and  _28
REMARK   12  A    between atoms: _27  and  _30
REMARK   13  A    between atoms: _30  and  _31
REMARK   14  A    between atoms: _34  and  _36
REMARK   15  A    between atoms: _36  and  _37
REMARK   16  A    between atoms: _36  and  _39
REMARK   17  A    between atoms: _39  and  _40
REMARK   18  A    between atoms: _40  and  _41
REMARK   19  A    between atoms: _44  and  _46
REMARK   20  A    between atoms: _46  and  _47
REMARK   21  A    between atoms: _46  and  _49
REMARK   22  A    between atoms: _49  and  _50
REMARK   23  A    between atoms: _53  and  _55
REMARK   24  A    between atoms: _55  and  _56
REMARK   25  A    between atoms: _55  and  _58
REMARK   26  A    between atoms: _58  and  _59
REMARK   27  A    between atoms: _62  and  _64
REMARK   28  A    between atoms: _64  and  _65
REMARK   29  A    between atoms: _64  and  _67
REMARK   30  A    between atoms: _67  and  _68
REMARK   31  A    between atoms: _70  and  _72
REMARK   32  A    between atoms: _72  and  _73
REMARK   33  A    between atoms: _72  and  _75
REMARK   34  A    between atoms: _75  and  _76
REMARK   35  A    between atoms: _81  and  _83
REMARK   36  A    between atoms: _83  and  _84
REMARK   37  A    between atoms: _83  and  _86
REMARK   38  A    between atoms: _86  and  _87
REMARK   39  A    between atoms: _89  and  _91
REMARK   40  A    between atoms: _91  and  _92
REMARK   41  A    between atoms: _91  and  _94
REMARK   42  A    between atoms: _94  and  _95
REMARK   43  A    between atoms: _97  and  _99
REMARK   44  A    between atoms: _99  and  _100
REMARK   45  A    between atoms: _99  and  _102
REMARK   46  A    between atoms: _102  and  _103
REMARK   47  A    between atoms: _106  and  _108
REMARK   48  A    between atoms: _108  and  _109
REMARK   49  A    between atoms: _112  and  _114
REMARK   50  A    between atoms: _114  and  _115
REMARK   51  A    between atoms: _114  and  _117
REMARK   52  A    between atoms: _117  and  _118
REMARK   53  A    between atoms: _121  and  _123
REMARK   54  A    between atoms: _123  and  _124
REMARK   55  A    between atoms: _123  and  _126
REMARK   56  A    between atoms: _126  and  _127
REMARK   57  A    between atoms: _130  and  _132
REMARK   58  A    between atoms: _132  and  _133
REMARK   59  A    between atoms: _132  and  _135
REMARK   60  A    between atoms: _135  and  _136
REMARK   61  A    between atoms: _136  and  _137
REMARK   62  A    between atoms: _137  and  _138
REMARK   63  A    between atoms: _138  and  _139
REMARK   64  A    between atoms: _143  and  _145
REMARK   65  A    between atoms: _145  and  _146
REMARK   66  A    between atoms: _145  and  _148
REMARK   67  A    between atoms: _148  and  _149
REMARK   68  A    between atoms: _152  and  _154
REMARK   69  A    between atoms: _154  and  _155
REMARK   70  A    between atoms: _154  and  _157
REMARK   71  A    between atoms: _157  and  _158
REMARK   72  A    between atoms: _161  and  _163
REMARK   73  A    between atoms: _163  and  _164
REMARK   74  A    between atoms: _163  and  _166
REMARK   75  A    between atoms: _169  and  _171
REMARK   76  A    between atoms: _171  and  _172
REMARK   77  A    between atoms: _171  and  _174
REMARK   78  A    between atoms: _174  and  _175
REMARK   79  A    between atoms: _178  and  _180
REMARK   80  A    between atoms: _180  and  _181
REMARK   81  A    between atoms: _180  and  _183
REMARK   82  A    between atoms: _183  and  _184
REMARK   83  A    between atoms: _187  and  _189
REMARK   84  A    between atoms: _189  and  _190
REMARK   85  A    between atoms: _192  and  _194
REMARK   86  A    between atoms: _194  and  _195
REMARK   87  A    between atoms: _194  and  _197
REMARK   88  A    between atoms: _197  and  _198
REMARK   89  A    between atoms: _201  and  _203
REMARK   90  A    between atoms: _203  and  _204
REMARK   91  A    between atoms: _206  and  _208
REMARK   92  A    between atoms: _208  and  _209
REMARK   93  A    between atoms: _208  and  _211
REMARK   94  A    between atoms: _211  and  _212
REMARK   95  A    between atoms: _212  and  _213
REMARK   96  A    between atoms: _215  and  _217
REMARK   97  A    between atoms: _217  and  _218
REMARK   98  A    between atoms: _217  and  _220
REMARK   99  A    between atoms: _220  and  _221
REMARK  100  A    between atoms: _224  and  _226
REMARK  101  A    between atoms: _226  and  _227
REMARK  102  A    between atoms: _226  and  _229
REMARK  103  A    between atoms: _229  and  _230
REMARK  104  A    between atoms: _230  and  _231
REMARK  105  A    between atoms: _231  and  _232
REMARK  106  A    between atoms: _232  and  _233
REMARK  107  A    between atoms: _237  and  _239
REMARK  108  A    between atoms: _239  and  _240
REMARK  109  A    between atoms: _243  and  _245
REMARK  110  A    between atoms: _245  and  _246
REMARK  111  A    between atoms: _245  and  _248
REMARK  112  A    between atoms: _248  and  _249
REMARK  113  A    between atoms: _252  and  _254
REMARK  114  A    between atoms: _254  and  _255
REMARK  115  A    between atoms: _254  and  _257
REMARK  116  A    between atoms: _257  and  _258
REMARK  117  A    between atoms: _261  and  _263
REMARK  118  A    between atoms: _263  and  _264
REMARK  119  A    between atoms: _263  and  _266
REMARK  120  A    between atoms: _266  and  _267
REMARK  121  A    between atoms: _270  and  _272
REMARK  122  A    between atoms: _272  and  _273
REMARK  123  A    between atoms: _272  and  _275
REMARK  124  A    between atoms: _275  and  _276
REMARK  125  A    between atoms: _281  and  _283
REMARK  126  A    between atoms: _283  and  _284
REMARK  127  A    between atoms: _283  and  _286
REMARK  128  A    between atoms: _286  and  _287
REMARK  129  A    between atoms: _292  and  _294
REMARK  130  A    between atoms: _294  and  _295
REMARK  131  A    between atoms: _294  and  _297
REMARK  132  A    between atoms: _297  and  _298
REMARK  133  A    between atoms: _301  and  _303
REMARK  134  A    between atoms: _303  and  _304
REMARK  135  A    between atoms: _306  and  _308
REMARK  136  A    between atoms: _308  and  _309
REMARK  137  A    between atoms: _308  and  _311
REMARK  138  A    between atoms: _311  and  _312
REMARK  139  A    between atoms: _315  and  _317
REMARK  140  A    between atoms: _317  and  _318
REMARK  141  A    between atoms: _317  and  _320
REMARK  142  A    between atoms: _320  and  _321
REMARK  143  A    between atoms: _324  and  _326
REMARK  144  A    between atoms: _326  and  _327
REMARK  145  A    between atoms: _330  and  _332
REMARK  146  A    between atoms: _332  and  _333
REMARK  147  A    between atoms: _332  and  _335
REMARK  148  A    between atoms: _335  and  _336
REMARK  149  A    between atoms: _336  and  _337
REMARK  150  A    between atoms: _337  and  _338
REMARK  151  A    between atoms: _338  and  _339
REMARK  152  A    between atoms: _343  and  _345
REMARK  153  A    between atoms: _345  and  _346
REMARK  154  A    between atoms: _348  and  _350
REMARK  155  A    between atoms: _350  and  _351
REMARK  156  A    between atoms: _350  and  _353
REMARK  157  A    between atoms: _353  and  _354
REMARK  158  A    between atoms: _357  and  _359
REMARK  159  A    between atoms: _359  and  _360
REMARK  160  A    between atoms: _362  and  _364
REMARK  161  A    between atoms: _364  and  _365
REMARK  162  A    between atoms: _364  and  _367
REMARK  163  A    between atoms: _367  and  _368
REMARK  164  A    between atoms: _374  and  _376
REMARK  165  A    between atoms: _376  and  _377
REMARK  166  A    between atoms: _379  and  _381
REMARK  167  A    between atoms: _381  and  _382
REMARK  168  A    between atoms: _381  and  _384
REMARK  169  A    between atoms: _387  and  _389
REMARK  170  A    between atoms: _389  and  _390
REMARK  171  A    between atoms: _392  and  _394
REMARK  172  A    between atoms: _394  and  _395
REMARK  173  A    between atoms: _394  and  _397
REMARK  174  A    between atoms: _397  and  _398
REMARK  175  A    between atoms: _404  and  _406
REMARK  176  A    between atoms: _406  and  _407
REMARK  177  A    between atoms: _406  and  _409
REMARK  178  A    between atoms: _409  and  _410
REMARK  179  A    between atoms: _415  and  _416
REMARK  180  A    between atoms: _418  and  _420
REMARK  181  A    between atoms: _420  and  _421
REMARK  182  A    between atoms: _420  and  _423
REMARK  183  A    between atoms: _423  and  _424
REMARK  184  A    between atoms: _429  and  _430
REMARK  185  A    between atoms: _432  and  _434
REMARK  186  A    between atoms: _434  and  _435
REMARK  187  A    between atoms: _434  and  _437
REMARK  188  A    between atoms: _440  and  _442
REMARK  189  A    between atoms: _442  and  _443
REMARK  190  A    between atoms: _442  and  _445
REMARK  191  A    between atoms: _445  and  _446
REMARK  192  A    between atoms: _449  and  _451
REMARK  193  A    between atoms: _451  and  _452
REMARK  194  A    between atoms: _451  and  _454
REMARK  195  A    between atoms: _457  and  _459
REMARK  196  A    between atoms: _459  and  _460
REMARK  197  A    between atoms: _459  and  _462
REMARK  198  A    between atoms: _462  and  _463
REMARK  199  A    between atoms: _466  and  _468
REMARK  200  A    between atoms: _468  and  _469
REMARK  201  A    between atoms: _468  and  _471
REMARK  202  A    between atoms: _471  and  _472
REMARK  203  A    between atoms: _475  and  _477
REMARK  204  A    between atoms: _477  and  _478
REMARK  205  A    between atoms: _477  and  _480
REMARK  206  A    between atoms: _480  and  _481
REMARK  207  A    between atoms: _481  and  _482
REMARK  208  A    between atoms: _482  and  _483
REMARK  209  A    between atoms: _483  and  _484
REMARK  210  A    between atoms: _488  and  _490
REMARK  211  A    between atoms: _490  and  _491
REMARK  212  A    between atoms: _490  and  _493
REMARK  213  A    between atoms: _493  and  _494
REMARK  214  A    between atoms: _504  and  _506
REMARK  215  A    between atoms: _506  and  _507
REMARK  216  A    between atoms: _506  and  _509
REMARK  217  A    between atoms: _509  and  _510
REMARK  218  A    between atoms: _510  and  _511
REMARK  219  A    between atoms: _514  and  _516
REMARK  220  A    between atoms: _516  and  _517
REMARK  221  A    between atoms: _516  and  _519
REMARK  222  A    between atoms: _519  and  _520
REMARK  223  A    between atoms: _522  and  _524
REMARK  224  A    between atoms: _524  and  _525
REMARK  225  A    between atoms: _524  and  _527
REMARK  226  A    between atoms: _527  and  _528
REMARK  227  A    between atoms: _534  and  _536
REMARK  228  A    between atoms: _536  and  _537
REMARK  229  A    between atoms: _536  and  _539
REMARK  230  A    between atoms: _539  and  _540
REMARK  231  A    between atoms: _543  and  _545
REMARK  232  A    between atoms: _545  and  _546
REMARK  233  A    between atoms: _545  and  _548
REMARK  234  A    between atoms: _551  and  _553
REMARK  235  A    between atoms: _553  and  _554
REMARK  236  A    between atoms: _556  and  _558
REMARK  237  A    between atoms: _558  and  _559
REMARK  238  A    between atoms: _558  and  _561
REMARK  239  A    between atoms: _561  and  _562
REMARK  240  A    between atoms: _565  and  _567
REMARK  241  A    between atoms: _567  and  _568
REMARK  242  A    between atoms: _567  and  _570
REMARK  243  A    between atoms: _570  and  _571
REMARK  244  A    between atoms: _571  and  _572
REMARK  245  A    between atoms: _572  and  _573
REMARK  246  A    between atoms: _573  and  _574
REMARK  247  A    between atoms: _578  and  _580
REMARK  248  A    between atoms: _580  and  _581
REMARK  249  A    between atoms: _580  and  _583
REMARK                            x       y       z     vdW  Elec       q    Type
REMARK                         _______ _______ _______ _____ _____    ______ ____
ROOT
ATOM      1  O   HOH     1      -4.027 -15.127 -23.144  0.00  0.00    +0.000 OA
ENDROOT
TORSDOF 0
REMARK  Name = ../refined-set-2016/4o07/4o07_pocket.pdb
REMARK  249 active torsions:
REMARK  status: ('A' for Active; 'I' for Inactive)
REMARK    1  A    between atoms: _1  and  _3
REMARK    2  A    between atoms: _3  and  _4
REMARK    3  A    between atoms: _3  and  _6
REMARK    4  A    between atoms: _6  and  _7
REMARK    5  A    between atoms: _13  and  _15
REMARK    6  A    between atoms: _15  and  _16
REMARK    7  A    between atoms: _15  and  _18
REMARK    8  A    between atoms: _18  and  _19
REMARK    9  A    between atoms: _19  and  _20
REMARK   10  A    between atoms: _25  and  _27
REMARK   11  A    between atoms: _27  and  _28
REMARK   12  A    between atoms: _27  and  _30
REMARK   13  A    between atoms: _30  and  _31
REMARK   14  A    between atoms: _34  and  _36
REMARK   15  A    between atoms: _36  and  _37
REMARK   16  A    between atoms: _36  and  _39
REMARK   17  A    between atoms: _39  and  _40
REMARK   18  A    between atoms: _40  and  _41
REMARK   19  A    between atoms: _44  and  _46
REMARK   20  A    between atoms: _46  and  _47
REMARK   21  A    between atoms: _46  and  _49
REMARK   22  A    between atoms: _49  and  _50
REMARK   23  A    between atoms: _53  and  _55
REMARK   24  A    between atoms: _55  and  _56
REMARK   25  A    between atoms: _55  and  _58
REMARK   26  A    between atoms: _58  and  _59
REMARK   27  A    between atoms: _62  and  _64
REMARK   28  A    between atoms: _64  and  _65
REMARK   29  A    between atoms: _64  and  _67
REMARK   30  A    between atoms: _67  and  _68
REMARK   31  A    between atoms: _70  and  _72
REMARK   32  A    between atoms: _72  and  _73
REMARK   33  A    between atoms: _72  and  _75
REMARK   34  A    between atoms: _75  and  _76
REMARK   35  A    between atoms: _81  and  _83
REMARK   36  A    between atoms: _83  and  _84
REMARK   37  A    between atoms: _83  and  _86
REMARK   38  A    between atoms: _86  and  _87
REMARK   39  A    between atoms: _89  and  _91
REMARK   40  A    between atoms: _91  and  _92
REMARK   41  A    between atoms: _91  and  _94
REMARK   42  A    between atoms: _94  and  _95
REMARK   43  A    between atoms: _97  and  _99
REMARK   44  A    between atoms: _99  and  _100
REMARK   45  A    between atoms: _99  and  _102
REMARK   46  A    between atoms: _102  and  _103
REMARK   47  A    between atoms: _106  and  _108
REMARK   48  A    between atoms: _108  and  _109
REMARK   49  A    between atoms: _112  and  _114
REMARK   50  A    between atoms: _114  and  _115
REMARK   51  A    between atoms: _114  and  _117
REMARK   52  A    between atoms: _117  and  _118
REMARK   53  A    between atoms: _121  and  _123
REMARK   54  A    between atoms: _123  and  _124
REMARK   55  A    between atoms: _123  and  _126
REMARK   56  A    between atoms: _126  and  _127
REMARK   57  A    between atoms: _130  and  _132
REMARK   58  A    between atoms: _132  and  _133
REMARK   59  A    between atoms: _132  and  _135
REMARK   60  A    between atoms: _135  and  _136
REMARK   61  A    between atoms: _136  and  _137
REMARK   62  A    between atoms: _137  and  _138
REMARK   63  A    between atoms: _138  and  _139
REMARK   64  A    between atoms: _143  and  _145
REMARK   65  A    between atoms: _145  and  _146
REMARK   66  A    between atoms: _145  and  _148
REMARK   67  A    between atoms: _148  and  _149
REMARK   68  A    between atoms: _152  and  _154
REMARK   69  A    between atoms: _154  and  _155
REMARK   70  A    between atoms: _154  and  _157
REMARK   71  A    between atoms: _157  and  _158
REMARK   72  A    between atoms: _161  and  _163
REMARK   73  A    between atoms: _163  and  _164
REMARK   74  A    between atoms: _163  and  _166
REMARK   75  A    between atoms: _169  and  _171
REMARK   76  A    between atoms: _171  and  _172
REMARK   77  A    between atoms: _171  and  _174
REMARK   78  A    between atoms: _174  and  _175
REMARK   79  A    between atoms: _178  and  _180
REMARK   80  A    between atoms: _180  and  _181
REMARK   81  A    between atoms: _180  and  _183
REMARK   82  A    between atoms: _183  and  _184
REMARK   83  A    between atoms: _187  and  _189
REMARK   84  A    between atoms: _189  and  _190
REMARK   85  A    between atoms: _192  and  _194
REMARK   86  A    between atoms: _194  and  _195
REMARK   87  A    between atoms: _194  and  _197
REMARK   88  A    between atoms: _197  and  _198
REMARK   89  A    between atoms: _201  and  _203
REMARK   90  A    between atoms: _203  and  _204
REMARK   91  A    between atoms: _206  and  _208
REMARK   92  A    between atoms: _208  and  _209
REMARK   93  A    between atoms: _208  and  _211
REMARK   94  A    between atoms: _211  and  _212
REMARK   95  A    between atoms: _212  and  _213
REMARK   96  A    between atoms: _215  and  _217
REMARK   97  A    between atoms: _217  and  _218
REMARK   98  A    between atoms: _217  and  _220
REMARK   99  A    between atoms: _220  and  _221
REMARK  100  A    between atoms: _224  and  _226
REMARK  101  A    between atoms: _226  and  _227
REMARK  102  A    between atoms: _226  and  _229
REMARK  103  A    between atoms: _229  and  _230
REMARK  104  A    between atoms: _230  and  _231
REMARK  105  A    between atoms: _231  and  _232
REMARK  106  A    between atoms: _232  and  _233
REMARK  107  A    between atoms: _237  and  _239
REMARK  108  A    between atoms: _239  and  _240
REMARK  109  A    between atoms: _243  and  _245
REMARK  110  A    between atoms: _245  and  _246
REMARK  111  A    between atoms: _245  and  _248
REMARK  112  A    between atoms: _248  and  _249
REMARK  113  A    between atoms: _252  and  _254
REMARK  114  A    between atoms: _254  and  _255
REMARK  115  A    between atoms: _254  and  _257
REMARK  116  A    between atoms: _257  and  _258
REMARK  117  A    between atoms: _261  and  _263
REMARK  118  A    between atoms: _263  and  _264
REMARK  119  A    between atoms: _263  and  _266
REMARK  120  A    between atoms: _266  and  _267
REMARK  121  A    between atoms: _270  and  _272
REMARK  122  A    between atoms: _272  and  _273
REMARK  123  A    between atoms: _272  and  _275
REMARK  124  A    between atoms: _275  and  _276
REMARK  125  A    between atoms: _281  and  _283
REMARK  126  A    between atoms: _283  and  _284
REMARK  127  A    between atoms: _283  and  _286
REMARK  128  A    between atoms: _286  and  _287
REMARK  129  A    between atoms: _292  and  _294
REMARK  130  A    between atoms: _294  and  _295
REMARK  131  A    between atoms: _294  and  _297
REMARK  132  A    between atoms: _297  and  _298
REMARK  133  A    between atoms: _301  and  _303
REMARK  134  A    between atoms: _303  and  _304
REMARK  135  A    between atoms: _306  and  _308
REMARK  136  A    between atoms: _308  and  _309
REMARK  137  A    between atoms: _308  and  _311
REMARK  138  A    between atoms: _311  and  _312
REMARK  139  A    between atoms: _315  and  _317
REMARK  140  A    between atoms: _317  and  _318
REMARK  141  A    between atoms: _317  and  _320
REMARK  142  A    between atoms: _320  and  _321
REMARK  143  A    between atoms: _324  and  _326
REMARK  144  A    between atoms: _326  and  _327
REMARK  145  A    between atoms: _330  and  _332
REMARK  146  A    between atoms: _332  and  _333
REMARK  147  A    between atoms: _332  and  _335
REMARK  148  A    between atoms: _335  and  _336
REMARK  149  A    between atoms: _336  and  _337
REMARK  150  A    between atoms: _337  and  _338
REMARK  151  A    between atoms: _338  and  _339
REMARK  152  A    between atoms: _343  and  _345
REMARK  153  A    between atoms: _345  and  _346
REMARK  154  A    between atoms: _348  and  _350
REMARK  155  A    between atoms: _350  and  _351
REMARK  156  A    between atoms: _350  and  _353
REMARK  157  A    between atoms: _353  and  _354
REMARK  158  A    between atoms: _357  and  _359
REMARK  159  A    between atoms: _359  and  _360
REMARK  160  A    between atoms: _362  and  _364
REMARK  161  A    between atoms: _364  and  _365
REMARK  162  A    between atoms: _364  and  _367
REMARK  163  A    between atoms: _367  and  _368
REMARK  164  A    between atoms: _374  and  _376
REMARK  165  A    between atoms: _376  and  _377
REMARK  166  A    between atoms: _379  and  _381
REMARK  167  A    between atoms: _381  and  _382
REMARK  168  A    between atoms: _381  and  _384
REMARK  169  A    between atoms: _387  and  _389
REMARK  170  A    between atoms: _389  and  _390
REMARK  171  A    between atoms: _392  and  _394
REMARK  172  A    between atoms: _394  and  _395
REMARK  173  A    between atoms: _394  and  _397
REMARK  174  A    between atoms: _397  and  _398
REMARK  175  A    between atoms: _404  and  _406
REMARK  176  A    between atoms: _406  and  _407
REMARK  177  A    between atoms: _406  and  _409
REMARK  178  A    between atoms: _409  and  _410
REMARK  179  A    between atoms: _415  and  _416
REMARK  180  A    between atoms: _418  and  _420
REMARK  181  A    between atoms: _420  and  _421
REMARK  182  A    between atoms: _420  and  _423
REMARK  183  A    between atoms: _423  and  _424
REMARK  184  A    between atoms: _429  and  _430
REMARK  185  A    between atoms: _432  and  _434
REMARK  186  A    between atoms: _434  and  _435
REMARK  187  A    between atoms: _434  and  _437
REMARK  188  A    between atoms: _440  and  _442
REMARK  189  A    between atoms: _442  and  _443
REMARK  190  A    between atoms: _442  and  _445
REMARK  191  A    between atoms: _445  and  _446
REMARK  192  A    between atoms: _449  and  _451
REMARK  193  A    between atoms: _451  and  _452
REMARK  194  A    between atoms: _451  and  _454
REMARK  195  A    between atoms: _457  and  _459
REMARK  196  A    between atoms: _459  and  _460
REMARK  197  A    between atoms: _459  and  _462
REMARK  198  A    between atoms: _462  and  _463
REMARK  199  A    between atoms: _466  and  _468
REMARK  200  A    between atoms: _468  and  _469
REMARK  201  A    between atoms: _468  and  _471
REMARK  202  A    between atoms: _471  and  _472
REMARK  203  A    between atoms: _475  and  _477
REMARK  204  A    between atoms: _477  and  _478
REMARK  205  A    between atoms: _477  and  _480
REMARK  206  A    between atoms: _480  and  _481
REMARK  207  A    between atoms: _481  and  _482
REMARK  208  A    between atoms: _482  and  _483
REMARK  209  A    between atoms: _483  and  _484
REMARK  210  A    between atoms: _488  and  _490
REMARK  211  A    between atoms: _490  and  _491
REMARK  212  A    between atoms: _490  and  _493
REMARK  213  A    between atoms: _493  and  _494
REMARK  214  A    between atoms: _504  and  _506
REMARK  215  A    between atoms: _506  and  _507
REMARK  216  A    between atoms: _506  and  _509
REMARK  217  A    between atoms: _509  and  _510
REMARK  218  A    between atoms: _510  and  _511
REMARK  219  A    between atoms: _514  and  _516
REMARK  220  A    between atoms: _516  and  _517
REMARK  221  A    between atoms: _516  and  _519
REMARK  222  A    between atoms: _519  and  _520
REMARK  223  A    between atoms: _522  and  _524
REMARK  224  A    between atoms: _524  and  _525
REMARK  225  A    between atoms: _524  and  _527
REMARK  226  A    between atoms: _527  and  _528
REMARK  227  A    between atoms: _534  and  _536
REMARK  228  A    between atoms: _536  and  _537
REMARK  229  A    between atoms: _536  and  _539
REMARK  230  A    between atoms: _539  and  _540
REMARK  231  A    between atoms: _543  and  _545
REMARK  232  A    between atoms: _545  and  _546
REMARK  233  A    between atoms: _545  and  _548
REMARK  234  A    between atoms: _551  and  _553
REMARK  235  A    between atoms: _553  and  _554
REMARK  236  A    between atoms: _556  and  _558
REMARK  237  A    between atoms: _558  and  _559
REMARK  238  A    between atoms: _558  and  _561
REMARK  239  A    between atoms: _561  and  _562
REMARK  240  A    between atoms: _565  and  _567
REMARK  241  A    between atoms: _567  and  _568
REMARK  242  A    between atoms: _567  and  _570
REMARK  243  A    between atoms: _570  and  _571
REMARK  244  A    between atoms: _571  and  _572
REMARK  245  A    between atoms: _572  and  _573
REMARK  246  A    between atoms: _573  and  _574
REMARK  247  A    between atoms: _578  and  _580
REMARK  248  A    between atoms: _580  and  _581
REMARK  249  A    between atoms: _580  and  _583
REMARK                            x       y       z     vdW  Elec       q    Type
REMARK                         _______ _______ _______ _____ _____    ______ ____
ROOT
ATOM      1  O   HOH     1       4.433  -6.798 -18.075  0.00  0.00    +0.000 OA
ENDROOT
TORSDOF 0
REMARK  Name = ../refined-set-2016/4o07/4o07_pocket.pdb
REMARK  249 active torsions:
REMARK  status: ('A' for Active; 'I' for Inactive)
REMARK    1  A    between atoms: _1  and  _3
REMARK    2  A    between atoms: _3  and  _4
REMARK    3  A    between atoms: _3  and  _6
REMARK    4  A    between atoms: _6  and  _7
REMARK    5  A    between atoms: _13  and  _15
REMARK    6  A    between atoms: _15  and  _16
REMARK    7  A    between atoms: _15  and  _18
REMARK    8  A    between atoms: _18  and  _19
REMARK    9  A    between atoms: _19  and  _20
REMARK   10  A    between atoms: _25  and  _27
REMARK   11  A    between atoms: _27  and  _28
REMARK   12  A    between atoms: _27  and  _30
REMARK   13  A    between atoms: _30  and  _31
REMARK   14  A    between atoms: _34  and  _36
REMARK   15  A    between atoms: _36  and  _37
REMARK   16  A    between atoms: _36  and  _39
REMARK   17  A    between atoms: _39  and  _40
REMARK   18  A    between atoms: _40  and  _41
REMARK   19  A    between atoms: _44  and  _46
REMARK   20  A    between atoms: _46  and  _47
REMARK   21  A    between atoms: _46  and  _49
REMARK   22  A    between atoms: _49  and  _50
REMARK   23  A    between atoms: _53  and  _55
REMARK   24  A    between atoms: _55  and  _56
REMARK   25  A    between atoms: _55  and  _58
REMARK   26  A    between atoms: _58  and  _59
REMARK   27  A    between atoms: _62  and  _64
REMARK   28  A    between atoms: _64  and  _65
REMARK   29  A    between atoms: _64  and  _67
REMARK   30  A    between atoms: _67  and  _68
REMARK   31  A    between atoms: _70  and  _72
REMARK   32  A    between atoms: _72  and  _73
REMARK   33  A    between atoms: _72  and  _75
REMARK   34  A    between atoms: _75  and  _76
REMARK   35  A    between atoms: _81  and  _83
REMARK   36  A    between atoms: _83  and  _84
REMARK   37  A    between atoms: _83  and  _86
REMARK   38  A    between atoms: _86  and  _87
REMARK   39  A    between atoms: _89  and  _91
REMARK   40  A    between atoms: _91  and  _92
REMARK   41  A    between atoms: _91  and  _94
REMARK   42  A    between atoms: _94  and  _95
REMARK   43  A    between atoms: _97  and  _99
REMARK   44  A    between atoms: _99  and  _100
REMARK   45  A    between atoms: _99  and  _102
REMARK   46  A    between atoms: _102  and  _103
REMARK   47  A    between atoms: _106  and  _108
REMARK   48  A    between atoms: _108  and  _109
REMARK   49  A    between atoms: _112  and  _114
REMARK   50  A    between atoms: _114  and  _115
REMARK   51  A    between atoms: _114  and  _117
REMARK   52  A    between atoms: _117  and  _118
REMARK   53  A    between atoms: _121  and  _123
REMARK   54  A    between atoms: _123  and  _124
REMARK   55  A    between atoms: _123  and  _126
REMARK   56  A    between atoms: _126  and  _127
REMARK   57  A    between atoms: _130  and  _132
REMARK   58  A    between atoms: _132  and  _133
REMARK   59  A    between atoms: _132  and  _135
REMARK   60  A    between atoms: _135  and  _136
REMARK   61  A    between atoms: _136  and  _137
REMARK   62  A    between atoms: _137  and  _138
REMARK   63  A    between atoms: _138  and  _139
REMARK   64  A    between atoms: _143  and  _145
REMARK   65  A    between atoms: _145  and  _146
REMARK   66  A    between atoms: _145  and  _148
REMARK   67  A    between atoms: _148  and  _149
REMARK   68  A    between atoms: _152  and  _154
REMARK   69  A    between atoms: _154  and  _155
REMARK   70  A    between atoms: _154  and  _157
REMARK   71  A    between atoms: _157  and  _158
REMARK   72  A    between atoms: _161  and  _163
REMARK   73  A    between atoms: _163  and  _164
REMARK   74  A    between atoms: _163  and  _166
REMARK   75  A    between atoms: _169  and  _171
REMARK   76  A    between atoms: _171  and  _172
REMARK   77  A    between atoms: _171  and  _174
REMARK   78  A    between atoms: _174  and  _175
REMARK   79  A    between atoms: _178  and  _180
REMARK   80  A    between atoms: _180  and  _181
REMARK   81  A    between atoms: _180  and  _183
REMARK   82  A    between atoms: _183  and  _184
REMARK   83  A    between atoms: _187  and  _189
REMARK   84  A    between atoms: _189  and  _190
REMARK   85  A    between atoms: _192  and  _194
REMARK   86  A    between atoms: _194  and  _195
REMARK   87  A    between atoms: _194  and  _197
REMARK   88  A    between atoms: _197  and  _198
REMARK   89  A    between atoms: _201  and  _203
REMARK   90  A    between atoms: _203  and  _204
REMARK   91  A    between atoms: _206  and  _208
REMARK   92  A    between atoms: _208  and  _209
REMARK   93  A    between atoms: _208  and  _211
REMARK   94  A    between atoms: _211  and  _212
REMARK   95  A    between atoms: _212  and  _213
REMARK   96  A    between atoms: _215  and  _217
REMARK   97  A    between atoms: _217  and  _218
REMARK   98  A    between atoms: _217  and  _220
REMARK   99  A    between atoms: _220  and  _221
REMARK  100  A    between atoms: _224  and  _226
REMARK  101  A    between atoms: _226  and  _227
REMARK  102  A    between atoms: _226  and  _229
REMARK  103  A    between atoms: _229  and  _230
REMARK  104  A    between atoms: _230  and  _231
REMARK  105  A    between atoms: _231  and  _232
REMARK  106  A    between atoms: _232  and  _233
REMARK  107  A    between atoms: _237  and  _239
REMARK  108  A    between atoms: _239  and  _240
REMARK  109  A    between atoms: _243  and  _245
REMARK  110  A    between atoms: _245  and  _246
REMARK  111  A    between atoms: _245  and  _248
REMARK  112  A    between atoms: _248  and  _249
REMARK  113  A    between atoms: _252  and  _254
REMARK  114  A    between atoms: _254  and  _255
REMARK  115  A    between atoms: _254  and  _257
REMARK  116  A    between atoms: _257  and  _258
REMARK  117  A    between atoms: _261  and  _263
REMARK  118  A    between atoms: _263  and  _264
REMARK  119  A    between atoms: _263  and  _266
REMARK  120  A    between atoms: _266  and  _267
REMARK  121  A    between atoms: _270  and  _272
REMARK  122  A    between atoms: _272  and  _273
REMARK  123  A    between atoms: _272  and  _275
REMARK  124  A    between atoms: _275  and  _276
REMARK  125  A    between atoms: _281  and  _283
REMARK  126  A    between atoms: _283  and  _284
REMARK  127  A    between atoms: _283  and  _286
REMARK  128  A    between atoms: _286  and  _287
REMARK  129  A    between atoms: _292  and  _294
REMARK  130  A    between atoms: _294  and  _295
REMARK  131  A    between atoms: _294  and  _297
REMARK  132  A    between atoms: _297  and  _298
REMARK  133  A    between atoms: _301  and  _303
REMARK  134  A    between atoms: _303  and  _304
REMARK  135  A    between atoms: _306  and  _308
REMARK  136  A    between atoms: _308  and  _309
REMARK  137  A    between atoms: _308  and  _311
REMARK  138  A    between atoms: _311  and  _312
REMARK  139  A    between atoms: _315  and  _317
REMARK  140  A    between atoms: _317  and  _318
REMARK  141  A    between atoms: _317  and  _320
REMARK  142  A    between atoms: _320  and  _321
REMARK  143  A    between atoms: _324  and  _326
REMARK  144  A    between atoms: _326  and  _327
REMARK  145  A    between atoms: _330  and  _332
REMARK  146  A    between atoms: _332  and  _333
REMARK  147  A    between atoms: _332  and  _335
REMARK  148  A    between atoms: _335  and  _336
REMARK  149  A    between atoms: _336  and  _337
REMARK  150  A    between atoms: _337  and  _338
REMARK  151  A    between atoms: _338  and  _339
REMARK  152  A    between atoms: _343  and  _345
REMARK  153  A    between atoms: _345  and  _346
REMARK  154  A    between atoms: _348  and  _350
REMARK  155  A    between atoms: _350  and  _351
REMARK  156  A    between atoms: _350  and  _353
REMARK  157  A    between atoms: _353  and  _354
REMARK  158  A    between atoms: _357  and  _359
REMARK  159  A    between atoms: _359  and  _360
REMARK  160  A    between atoms: _362  and  _364
REMARK  161  A    between atoms: _364  and  _365
REMARK  162  A    between atoms: _364  and  _367
REMARK  163  A    between atoms: _367  and  _368
REMARK  164  A    between atoms: _374  and  _376
REMARK  165  A    between atoms: _376  and  _377
REMARK  166  A    between atoms: _379  and  _381
REMARK  167  A    between atoms: _381  and  _382
REMARK  168  A    between atoms: _381  and  _384
REMARK  169  A    between atoms: _387  and  _389
REMARK  170  A    between atoms: _389  and  _390
REMARK  171  A    between atoms: _392  and  _394
REMARK  172  A    between atoms: _394  and  _395
REMARK  173  A    between atoms: _394  and  _397
REMARK  174  A    between atoms: _397  and  _398
REMARK  175  A    between atoms: _404  and  _406
REMARK  176  A    between atoms: _406  and  _407
REMARK  177  A    between atoms: _406  and  _409
REMARK  178  A    between atoms: _409  and  _410
REMARK  179  A    between atoms: _415  and  _416
REMARK  180  A    between atoms: _418  and  _420
REMARK  181  A    between atoms: _420  and  _421
REMARK  182  A    between atoms: _420  and  _423
REMARK  183  A    between atoms: _423  and  _424
REMARK  184  A    between atoms: _429  and  _430
REMARK  185  A    between atoms: _432  and  _434
REMARK  186  A    between atoms: _434  and  _435
REMARK  187  A    between atoms: _434  and  _437
REMARK  188  A    between atoms: _440  and  _442
REMARK  189  A    between atoms: _442  and  _443
REMARK  190  A    between atoms: _442  and  _445
REMARK  191  A    between atoms: _445  and  _446
REMARK  192  A    between atoms: _449  and  _451
REMARK  193  A    between atoms: _451  and  _452
REMARK  194  A    between atoms: _451  and  _454
REMARK  195  A    between atoms: _457  and  _459
REMARK  196  A    between atoms: _459  and  _460
REMARK  197  A    between atoms: _459  and  _462
REMARK  198  A    between atoms: _462  and  _463
REMARK  199  A    between atoms: _466  and  _468
REMARK  200  A    between atoms: _468  and  _469
REMARK  201  A    between atoms: _468  and  _471
REMARK  202  A    between atoms: _471  and  _472
REMARK  203  A    between atoms: _475  and  _477
REMARK  204  A    between atoms: _477  and  _478
REMARK  205  A    between atoms: _477  and  _480
REMARK  206  A    between atoms: _480  and  _481
REMARK  207  A    between atoms: _481  and  _482
REMARK  208  A    between atoms: _482  and  _483
REMARK  209  A    between atoms: _483  and  _484
REMARK  210  A    between atoms: _488  and  _490
REMARK  211  A    between atoms: _490  and  _491
REMARK  212  A    between atoms: _490  and  _493
REMARK  213  A    between atoms: _493  and  _494
REMARK  214  A    between atoms: _504  and  _506
REMARK  215  A    between atoms: _506  and  _507
REMARK  216  A    between atoms: _506  and  _509
REMARK  217  A    between atoms: _509  and  _510
REMARK  218  A    between atoms: _510  and  _511
REMARK  219  A    between atoms: _514  and  _516
REMARK  220  A    between atoms: _516  and  _517
REMARK  221  A    between atoms: _516  and  _519
REMARK  222  A    between atoms: _519  and  _520
REMARK  223  A    between atoms: _522  and  _524
REMARK  224  A    between atoms: _524  and  _525
REMARK  225  A    between atoms: _524  and  _527
REMARK  226  A    between atoms: _527  and  _528
REMARK  227  A    between atoms: _534  and  _536
REMARK  228  A    between atoms: _536  and  _537
REMARK  229  A    between atoms: _536  and  _539
REMARK  230  A    between atoms: _539  and  _540
REMARK  231  A    between atoms: _543  and  _545
REMARK  232  A    between atoms: _545  and  _546
REMARK  233  A    between atoms: _545  and  _548
REMARK  234  A    between atoms: _551  and  _553
REMARK  235  A    between atoms: _553  and  _554
REMARK  236  A    between atoms: _556  and  _558
REMARK  237  A    between atoms: _558  and  _559
REMARK  238  A    between atoms: _558  and  _561
REMARK  239  A    between atoms: _561  and  _562
REMARK  240  A    between atoms: _565  and  _567
REMARK  241  A    between atoms: _567  and  _568
REMARK  242  A    between atoms: _567  and  _570
REMARK  243  A    between atoms: _570  and  _571
REMARK  244  A    between atoms: _571  and  _572
REMARK  245  A    between atoms: _572  and  _573
REMARK  246  A    between atoms: _573  and  _574
REMARK  247  A    between atoms: _578  and  _580
REMARK  248  A    between atoms: _580  and  _581
REMARK  249  A    between atoms: _580  and  _583
REMARK                            x       y       z     vdW  Elec       q    Type
REMARK                         _______ _______ _______ _____ _____    ______ ____
ROOT
ATOM      1  O   HOH     1       1.150  -6.042 -19.791  0.00  0.00    +0.000 OA
ENDROOT
TORSDOF 0
REMARK  Name = ../refined-set-2016/4o07/4o07_pocket.pdb
REMARK  249 active torsions:
REMARK  status: ('A' for Active; 'I' for Inactive)
REMARK    1  A    between atoms: _1  and  _3
REMARK    2  A    between atoms: _3  and  _4
REMARK    3  A    between atoms: _3  and  _6
REMARK    4  A    between atoms: _6  and  _7
REMARK    5  A    between atoms: _13  and  _15
REMARK    6  A    between atoms: _15  and  _16
REMARK    7  A    between atoms: _15  and  _18
REMARK    8  A    between atoms: _18  and  _19
REMARK    9  A    between atoms: _19  and  _20
REMARK   10  A    between atoms: _25  and  _27
REMARK   11  A    between atoms: _27  and  _28
REMARK   12  A    between atoms: _27  and  _30
REMARK   13  A    between atoms: _30  and  _31
REMARK   14  A    between atoms: _34  and  _36
REMARK   15  A    between atoms: _36  and  _37
REMARK   16  A    between atoms: _36  and  _39
REMARK   17  A    between atoms: _39  and  _40
REMARK   18  A    between atoms: _40  and  _41
REMARK   19  A    between atoms: _44  and  _46
REMARK   20  A    between atoms: _46  and  _47
REMARK   21  A    between atoms: _46  and  _49
REMARK   22  A    between atoms: _49  and  _50
REMARK   23  A    between atoms: _53  and  _55
REMARK   24  A    between atoms: _55  and  _56
REMARK   25  A    between atoms: _55  and  _58
REMARK   26  A    between atoms: _58  and  _59
REMARK   27  A    between atoms: _62  and  _64
REMARK   28  A    between atoms: _64  and  _65
REMARK   29  A    between atoms: _64  and  _67
REMARK   30  A    between atoms: _67  and  _68
REMARK   31  A    between atoms: _70  and  _72
REMARK   32  A    between atoms: _72  and  _73
REMARK   33  A    between atoms: _72  and  _75
REMARK   34  A    between atoms: _75  and  _76
REMARK   35  A    between atoms: _81  and  _83
REMARK   36  A    between atoms: _83  and  _84
REMARK   37  A    between atoms: _83  and  _86
REMARK   38  A    between atoms: _86  and  _87
REMARK   39  A    between atoms: _89  and  _91
REMARK   40  A    between atoms: _91  and  _92
REMARK   41  A    between atoms: _91  and  _94
REMARK   42  A    between atoms: _94  and  _95
REMARK   43  A    between atoms: _97  and  _99
REMARK   44  A    between atoms: _99  and  _100
REMARK   45  A    between atoms: _99  and  _102
REMARK   46  A    between atoms: _102  and  _103
REMARK   47  A    between atoms: _106  and  _108
REMARK   48  A    between atoms: _108  and  _109
REMARK   49  A    between atoms: _112  and  _114
REMARK   50  A    between atoms: _114  and  _115
REMARK   51  A    between atoms: _114  and  _117
REMARK   52  A    between atoms: _117  and  _118
REMARK   53  A    between atoms: _121  and  _123
REMARK   54  A    between atoms: _123  and  _124
REMARK   55  A    between atoms: _123  and  _126
REMARK   56  A    between atoms: _126  and  _127
REMARK   57  A    between atoms: _130  and  _132
REMARK   58  A    between atoms: _132  and  _133
REMARK   59  A    between atoms: _132  and  _135
REMARK   60  A    between atoms: _135  and  _136
REMARK   61  A    between atoms: _136  and  _137
REMARK   62  A    between atoms: _137  and  _138
REMARK   63  A    between atoms: _138  and  _139
REMARK   64  A    between atoms: _143  and  _145
REMARK   65  A    between atoms: _145  and  _146
REMARK   66  A    between atoms: _145  and  _148
REMARK   67  A    between atoms: _148  and  _149
REMARK   68  A    between atoms: _152  and  _154
REMARK   69  A    between atoms: _154  and  _155
REMARK   70  A    between atoms: _154  and  _157
REMARK   71  A    between atoms: _157  and  _158
REMARK   72  A    between atoms: _161  and  _163
REMARK   73  A    between atoms: _163  and  _164
REMARK   74  A    between atoms: _163  and  _166
REMARK   75  A    between atoms: _169  and  _171
REMARK   76  A    between atoms: _171  and  _172
REMARK   77  A    between atoms: _171  and  _174
REMARK   78  A    between atoms: _174  and  _175
REMARK   79  A    between atoms: _178  and  _180
REMARK   80  A    between atoms: _180  and  _181
REMARK   81  A    between atoms: _180  and  _183
REMARK   82  A    between atoms: _183  and  _184
REMARK   83  A    between atoms: _187  and  _189
REMARK   84  A    between atoms: _189  and  _190
REMARK   85  A    between atoms: _192  and  _194
REMARK   86  A    between atoms: _194  and  _195
REMARK   87  A    between atoms: _194  and  _197
REMARK   88  A    between atoms: _197  and  _198
REMARK   89  A    between atoms: _201  and  _203
REMARK   90  A    between atoms: _203  and  _204
REMARK   91  A    between atoms: _206  and  _208
REMARK   92  A    between atoms: _208  and  _209
REMARK   93  A    between atoms: _208  and  _211
REMARK   94  A    between atoms: _211  and  _212
REMARK   95  A    between atoms: _212  and  _213
REMARK   96  A    between atoms: _215  and  _217
REMARK   97  A    between atoms: _217  and  _218
REMARK   98  A    between atoms: _217  and  _220
REMARK   99  A    between atoms: _220  and  _221
REMARK  100  A    between atoms: _224  and  _226
REMARK  101  A    between atoms: _226  and  _227
REMARK  102  A    between atoms: _226  and  _229
REMARK  103  A    between atoms: _229  and  _230
REMARK  104  A    between atoms: _230  and  _231
REMARK  105  A    between atoms: _231  and  _232
REMARK  106  A    between atoms: _232  and  _233
REMARK  107  A    between atoms: _237  and  _239
REMARK  108  A    between atoms: _239  and  _240
REMARK  109  A    between atoms: _243  and  _245
REMARK  110  A    between atoms: _245  and  _246
REMARK  111  A    between atoms: _245  and  _248
REMARK  112  A    between atoms: _248  and  _249
REMARK  113  A    between atoms: _252  and  _254
REMARK  114  A    between atoms: _254  and  _255
REMARK  115  A    between atoms: _254  and  _257
REMARK  116  A    between atoms: _257  and  _258
REMARK  117  A    between atoms: _261  and  _263
REMARK  118  A    between atoms: _263  and  _264
REMARK  119  A    between atoms: _263  and  _266
REMARK  120  A    between atoms: _266  and  _267
REMARK  121  A    between atoms: _270  and  _272
REMARK  122  A    between atoms: _272  and  _273
REMARK  123  A    between atoms: _272  and  _275
REMARK  124  A    between atoms: _275  and  _276
REMARK  125  A    between atoms: _281  and  _283
REMARK  126  A    between atoms: _283  and  _284
REMARK  127  A    between atoms: _283  and  _286
REMARK  128  A    between atoms: _286  and  _287
REMARK  129  A    between atoms: _292  and  _294
REMARK  130  A    between atoms: _294  and  _295
REMARK  131  A    between atoms: _294  and  _297
REMARK  132  A    between atoms: _297  and  _298
REMARK  133  A    between atoms: _301  and  _303
REMARK  134  A    between atoms: _303  and  _304
REMARK  135  A    between atoms: _306  and  _308
REMARK  136  A    between atoms: _308  and  _309
REMARK  137  A    between atoms: _308  and  _311
REMARK  138  A    between atoms: _311  and  _312
REMARK  139  A    between atoms: _315  and  _317
REMARK  140  A    between atoms: _317  and  _318
REMARK  141  A    between atoms: _317  and  _320
REMARK  142  A    between atoms: _320  and  _321
REMARK  143  A    between atoms: _324  and  _326
REMARK  144  A    between atoms: _326  and  _327
REMARK  145  A    between atoms: _330  and  _332
REMARK  146  A    between atoms: _332  and  _333
REMARK  147  A    between atoms: _332  and  _335
REMARK  148  A    between atoms: _335  and  _336
REMARK  149  A    between atoms: _336  and  _337
REMARK  150  A    between atoms: _337  and  _338
REMARK  151  A    between atoms: _338  and  _339
REMARK  152  A    between atoms: _343  and  _345
REMARK  153  A    between atoms: _345  and  _346
REMARK  154  A    between atoms: _348  and  _350
REMARK  155  A    between atoms: _350  and  _351
REMARK  156  A    between atoms: _350  and  _353
REMARK  157  A    between atoms: _353  and  _354
REMARK  158  A    between atoms: _357  and  _359
REMARK  159  A    between atoms: _359  and  _360
REMARK  160  A    between atoms: _362  and  _364
REMARK  161  A    between atoms: _364  and  _365
REMARK  162  A    between atoms: _364  and  _367
REMARK  163  A    between atoms: _367  and  _368
REMARK  164  A    between atoms: _374  and  _376
REMARK  165  A    between atoms: _376  and  _377
REMARK  166  A    between atoms: _379  and  _381
REMARK  167  A    between atoms: _381  and  _382
REMARK  168  A    between atoms: _381  and  _384
REMARK  169  A    between atoms: _387  and  _389
REMARK  170  A    between atoms: _389  and  _390
REMARK  171  A    between atoms: _392  and  _394
REMARK  172  A    between atoms: _394  and  _395
REMARK  173  A    between atoms: _394  and  _397
REMARK  174  A    between atoms: _397  and  _398
REMARK  175  A    between atoms: _404  and  _406
REMARK  176  A    between atoms: _406  and  _407
REMARK  177  A    between atoms: _406  and  _409
REMARK  178  A    between atoms: _409  and  _410
REMARK  179  A    between atoms: _415  and  _416
REMARK  180  A    between atoms: _418  and  _420
REMARK  181  A    between atoms: _420  and  _421
REMARK  182  A    between atoms: _420  and  _423
REMARK  183  A    between atoms: _423  and  _424
REMARK  184  A    between atoms: _429  and  _430
REMARK  185  A    between atoms: _432  and  _434
REMARK  186  A    between atoms: _434  and  _435
REMARK  187  A    between atoms: _434  and  _437
REMARK  188  A    between atoms: _440  and  _442
REMARK  189  A    between atoms: _442  and  _443
REMARK  190  A    between atoms: _442  and  _445
REMARK  191  A    between atoms: _445  and  _446
REMARK  192  A    between atoms: _449  and  _451
REMARK  193  A    between atoms: _451  and  _452
REMARK  194  A    between atoms: _451  and  _454
REMARK  195  A    between atoms: _457  and  _459
REMARK  196  A    between atoms: _459  and  _460
REMARK  197  A    between atoms: _459  and  _462
REMARK  198  A    between atoms: _462  and  _463
REMARK  199  A    between atoms: _466  and  _468
REMARK  200  A    between atoms: _468  and  _469
REMARK  201  A    between atoms: _468  and  _471
REMARK  202  A    between atoms: _471  and  _472
REMARK  203  A    between atoms: _475  and  _477
REMARK  204  A    between atoms: _477  and  _478
REMARK  205  A    between atoms: _477  and  _480
REMARK  206  A    between atoms: _480  and  _481
REMARK  207  A    between atoms: _481  and  _482
REMARK  208  A    between atoms: _482  and  _483
REMARK  209  A    between atoms: _483  and  _484
REMARK  210  A    between atoms: _488  and  _490
REMARK  211  A    between atoms: _490  and  _491
REMARK  212  A    between atoms: _490  and  _493
REMARK  213  A    between atoms: _493  and  _494
REMARK  214  A    between atoms: _504  and  _506
REMARK  215  A    between atoms: _506  and  _507
REMARK  216  A    between atoms: _506  and  _509
REMARK  217  A    between atoms: _509  and  _510
REMARK  218  A    between atoms: _510  and  _511
REMARK  219  A    between atoms: _514  and  _516
REMARK  220  A    between atoms: _516  and  _517
REMARK  221  A    between atoms: _516  and  _519
REMARK  222  A    between atoms: _519  and  _520
REMARK  223  A    between atoms: _522  and  _524
REMARK  224  A    between atoms: _524  and  _525
REMARK  225  A    between atoms: _524  and  _527
REMARK  226  A    between atoms: _527  and  _528
REMARK  227  A    between atoms: _534  and  _536
REMARK  228  A    between atoms: _536  and  _537
REMARK  229  A    between atoms: _536  and  _539
REMARK  230  A    between atoms: _539  and  _540
REMARK  231  A    between atoms: _543  and  _545
REMARK  232  A    between atoms: _545  and  _546
REMARK  233  A    between atoms: _545  and  _548
REMARK  234  A    between atoms: _551  and  _553
REMARK  235  A    between atoms: _553  and  _554
REMARK  236  A    between atoms: _556  and  _558
REMARK  237  A    between atoms: _558  and  _559
REMARK  238  A    between atoms: _558  and  _561
REMARK  239  A    between atoms: _561  and  _562
REMARK  240  A    between atoms: _565  and  _567
REMARK  241  A    between atoms: _567  and  _568
REMARK  242  A    between atoms: _567  and  _570
REMARK  243  A    between atoms: _570  and  _571
REMARK  244  A    between atoms: _571  and  _572
REMARK  245  A    between atoms: _572  and  _573
REMARK  246  A    between atoms: _573  and  _574
REMARK  247  A    between atoms: _578  and  _580
REMARK  248  A    between atoms: _580  and  _581
REMARK  249  A    between atoms: _580  and  _583
REMARK                            x       y       z     vdW  Elec       q    Type
REMARK                         _______ _______ _______ _____ _____    ______ ____
ROOT
ATOM      1  O   HOH     1      -2.607 -14.068 -20.604  0.00  0.00    +0.000 OA
ENDROOT
TORSDOF 0
REMARK  Name = ../refined-set-2016/4o07/4o07_pocket.pdb
REMARK  249 active torsions:
REMARK  status: ('A' for Active; 'I' for Inactive)
REMARK    1  A    between atoms: _1  and  _3
REMARK    2  A    between atoms: _3  and  _4
REMARK    3  A    between atoms: _3  and  _6
REMARK    4  A    between atoms: _6  and  _7
REMARK    5  A    between atoms: _13  and  _15
REMARK    6  A    between atoms: _15  and  _16
REMARK    7  A    between atoms: _15  and  _18
REMARK    8  A    between atoms: _18  and  _19
REMARK    9  A    between atoms: _19  and  _20
REMARK   10  A    between atoms: _25  and  _27
REMARK   11  A    between atoms: _27  and  _28
REMARK   12  A    between atoms: _27  and  _30
REMARK   13  A    between atoms: _30  and  _31
REMARK   14  A    between atoms: _34  and  _36
REMARK   15  A    between atoms: _36  and  _37
REMARK   16  A    between atoms: _36  and  _39
REMARK   17  A    between atoms: _39  and  _40
REMARK   18  A    between atoms: _40  and  _41
REMARK   19  A    between atoms: _44  and  _46
REMARK   20  A    between atoms: _46  and  _47
REMARK   21  A    between atoms: _46  and  _49
REMARK   22  A    between atoms: _49  and  _50
REMARK   23  A    between atoms: _53  and  _55
REMARK   24  A    between atoms: _55  and  _56
REMARK   25  A    between atoms: _55  and  _58
REMARK   26  A    between atoms: _58  and  _59
REMARK   27  A    between atoms: _62  and  _64
REMARK   28  A    between atoms: _64  and  _65
REMARK   29  A    between atoms: _64  and  _67
REMARK   30  A    between atoms: _67  and  _68
REMARK   31  A    between atoms: _70  and  _72
REMARK   32  A    between atoms: _72  and  _73
REMARK   33  A    between atoms: _72  and  _75
REMARK   34  A    between atoms: _75  and  _76
REMARK   35  A    between atoms: _81  and  _83
REMARK   36  A    between atoms: _83  and  _84
REMARK   37  A    between atoms: _83  and  _86
REMARK   38  A    between atoms: _86  and  _87
REMARK   39  A    between atoms: _89  and  _91
REMARK   40  A    between atoms: _91  and  _92
REMARK   41  A    between atoms: _91  and  _94
REMARK   42  A    between atoms: _94  and  _95
REMARK   43  A    between atoms: _97  and  _99
REMARK   44  A    between atoms: _99  and  _100
REMARK   45  A    between atoms: _99  and  _102
REMARK   46  A    between atoms: _102  and  _103
REMARK   47  A    between atoms: _106  and  _108
REMARK   48  A    between atoms: _108  and  _109
REMARK   49  A    between atoms: _112  and  _114
REMARK   50  A    between atoms: _114  and  _115
REMARK   51  A    between atoms: _114  and  _117
REMARK   52  A    between atoms: _117  and  _118
REMARK   53  A    between atoms: _121  and  _123
REMARK   54  A    between atoms: _123  and  _124
REMARK   55  A    between atoms: _123  and  _126
REMARK   56  A    between atoms: _126  and  _127
REMARK   57  A    between atoms: _130  and  _132
REMARK   58  A    between atoms: _132  and  _133
REMARK   59  A    between atoms: _132  and  _135
REMARK   60  A    between atoms: _135  and  _136
REMARK   61  A    between atoms: _136  and  _137
REMARK   62  A    between atoms: _137  and  _138
REMARK   63  A    between atoms: _138  and  _139
REMARK   64  A    between atoms: _143  and  _145
REMARK   65  A    between atoms: _145  and  _146
REMARK   66  A    between atoms: _145  and  _148
REMARK   67  A    between atoms: _148  and  _149
REMARK   68  A    between atoms: _152  and  _154
REMARK   69  A    between atoms: _154  and  _155
REMARK   70  A    between atoms: _154  and  _157
REMARK   71  A    between atoms: _157  and  _158
REMARK   72  A    between atoms: _161  and  _163
REMARK   73  A    between atoms: _163  and  _164
REMARK   74  A    between atoms: _163  and  _166
REMARK   75  A    between atoms: _169  and  _171
REMARK   76  A    between atoms: _171  and  _172
REMARK   77  A    between atoms: _171  and  _174
REMARK   78  A    between atoms: _174  and  _175
REMARK   79  A    between atoms: _178  and  _180
REMARK   80  A    between atoms: _180  and  _181
REMARK   81  A    between atoms: _180  and  _183
REMARK   82  A    between atoms: _183  and  _184
REMARK   83  A    between atoms: _187  and  _189
REMARK   84  A    between atoms: _189  and  _190
REMARK   85  A    between atoms: _192  and  _194
REMARK   86  A    between atoms: _194  and  _195
REMARK   87  A    between atoms: _194  and  _197
REMARK   88  A    between atoms: _197  and  _198
REMARK   89  A    between atoms: _201  and  _203
REMARK   90  A    between atoms: _203  and  _204
REMARK   91  A    between atoms: _206  and  _208
REMARK   92  A    between atoms: _208  and  _209
REMARK   93  A    between atoms: _208  and  _211
REMARK   94  A    between atoms: _211  and  _212
REMARK   95  A    between atoms: _212  and  _213
REMARK   96  A    between atoms: _215  and  _217
REMARK   97  A    between atoms: _217  and  _218
REMARK   98  A    between atoms: _217  and  _220
REMARK   99  A    between atoms: _220  and  _221
REMARK  100  A    between atoms: _224  and  _226
REMARK  101  A    between atoms: _226  and  _227
REMARK  102  A    between atoms: _226  and  _229
REMARK  103  A    between atoms: _229  and  _230
REMARK  104  A    between atoms: _230  and  _231
REMARK  105  A    between atoms: _231  and  _232
REMARK  106  A    between atoms: _232  and  _233
REMARK  107  A    between atoms: _237  and  _239
REMARK  108  A    between atoms: _239  and  _240
REMARK  109  A    between atoms: _243  and  _245
REMARK  110  A    between atoms: _245  and  _246
REMARK  111  A    between atoms: _245  and  _248
REMARK  112  A    between atoms: _248  and  _249
REMARK  113  A    between atoms: _252  and  _254
REMARK  114  A    between atoms: _254  and  _255
REMARK  115  A    between atoms: _254  and  _257
REMARK  116  A    between atoms: _257  and  _258
REMARK  117  A    between atoms: _261  and  _263
REMARK  118  A    between atoms: _263  and  _264
REMARK  119  A    between atoms: _263  and  _266
REMARK  120  A    between atoms: _266  and  _267
REMARK  121  A    between atoms: _270  and  _272
REMARK  122  A    between atoms: _272  and  _273
REMARK  123  A    between atoms: _272  and  _275
REMARK  124  A    between atoms: _275  and  _276
REMARK  125  A    between atoms: _281  and  _283
REMARK  126  A    between atoms: _283  and  _284
REMARK  127  A    between atoms: _283  and  _286
REMARK  128  A    between atoms: _286  and  _287
REMARK  129  A    between atoms: _292  and  _294
REMARK  130  A    between atoms: _294  and  _295
REMARK  131  A    between atoms: _294  and  _297
REMARK  132  A    between atoms: _297  and  _298
REMARK  133  A    between atoms: _301  and  _303
REMARK  134  A    between atoms: _303  and  _304
REMARK  135  A    between atoms: _306  and  _308
REMARK  136  A    between atoms: _308  and  _309
REMARK  137  A    between atoms: _308  and  _311
REMARK  138  A    between atoms: _311  and  _312
REMARK  139  A    between atoms: _315  and  _317
REMARK  140  A    between atoms: _317  and  _318
REMARK  141  A    between atoms: _317  and  _320
REMARK  142  A    between atoms: _320  and  _321
REMARK  143  A    between atoms: _324  and  _326
REMARK  144  A    between atoms: _326  and  _327
REMARK  145  A    between atoms: _330  and  _332
REMARK  146  A    between atoms: _332  and  _333
REMARK  147  A    between atoms: _332  and  _335
REMARK  148  A    between atoms: _335  and  _336
REMARK  149  A    between atoms: _336  and  _337
REMARK  150  A    between atoms: _337  and  _338
REMARK  151  A    between atoms: _338  and  _339
REMARK  152  A    between atoms: _343  and  _345
REMARK  153  A    between atoms: _345  and  _346
REMARK  154  A    between atoms: _348  and  _350
REMARK  155  A    between atoms: _350  and  _351
REMARK  156  A    between atoms: _350  and  _353
REMARK  157  A    between atoms: _353  and  _354
REMARK  158  A    between atoms: _357  and  _359
REMARK  159  A    between atoms: _359  and  _360
REMARK  160  A    between atoms: _362  and  _364
REMARK  161  A    between atoms: _364  and  _365
REMARK  162  A    between atoms: _364  and  _367
REMARK  163  A    between atoms: _367  and  _368
REMARK  164  A    between atoms: _374  and  _376
REMARK  165  A    between atoms: _376  and  _377
REMARK  166  A    between atoms: _379  and  _381
REMARK  167  A    between atoms: _381  and  _382
REMARK  168  A    between atoms: _381  and  _384
REMARK  169  A    between atoms: _387  and  _389
REMARK  170  A    between atoms: _389  and  _390
REMARK  171  A    between atoms: _392  and  _394
REMARK  172  A    between atoms: _394  and  _395
REMARK  173  A    between atoms: _394  and  _397
REMARK  174  A    between atoms: _397  and  _398
REMARK  175  A    between atoms: _404  and  _406
REMARK  176  A    between atoms: _406  and  _407
REMARK  177  A    between atoms: _406  and  _409
REMARK  178  A    between atoms: _409  and  _410
REMARK  179  A    between atoms: _415  and  _416
REMARK  180  A    between atoms: _418  and  _420
REMARK  181  A    between atoms: _420  and  _421
REMARK  182  A    between atoms: _420  and  _423
REMARK  183  A    between atoms: _423  and  _424
REMARK  184  A    between atoms: _429  and  _430
REMARK  185  A    between atoms: _432  and  _434
REMARK  186  A    between atoms: _434  and  _435
REMARK  187  A    between atoms: _434  and  _437
REMARK  188  A    between atoms: _440  and  _442
REMARK  189  A    between atoms: _442  and  _443
REMARK  190  A    between atoms: _442  and  _445
REMARK  191  A    between atoms: _445  and  _446
REMARK  192  A    between atoms: _449  and  _451
REMARK  193  A    between atoms: _451  and  _452
REMARK  194  A    between atoms: _451  and  _454
REMARK  195  A    between atoms: _457  and  _459
REMARK  196  A    between atoms: _459  and  _460
REMARK  197  A    between atoms: _459  and  _462
REMARK  198  A    between atoms: _462  and  _463
REMARK  199  A    between atoms: _466  and  _468
REMARK  200  A    between atoms: _468  and  _469
REMARK  201  A    between atoms: _468  and  _471
REMARK  202  A    between atoms: _471  and  _472
REMARK  203  A    between atoms: _475  and  _477
REMARK  204  A    between atoms: _477  and  _478
REMARK  205  A    between atoms: _477  and  _480
REMARK  206  A    between atoms: _480  and  _481
REMARK  207  A    between atoms: _481  and  _482
REMARK  208  A    between atoms: _482  and  _483
REMARK  209  A    between atoms: _483  and  _484
REMARK  210  A    between atoms: _488  and  _490
REMARK  211  A    between atoms: _490  and  _491
REMARK  212  A    between atoms: _490  and  _493
REMARK  213  A    between atoms: _493  and  _494
REMARK  214  A    between atoms: _504  and  _506
REMARK  215  A    between atoms: _506  and  _507
REMARK  216  A    between atoms: _506  and  _509
REMARK  217  A    between atoms: _509  and  _510
REMARK  218  A    between atoms: _510  and  _511
REMARK  219  A    between atoms: _514  and  _516
REMARK  220  A    between atoms: _516  and  _517
REMARK  221  A    between atoms: _516  and  _519
REMARK  222  A    between atoms: _519  and  _520
REMARK  223  A    between atoms: _522  and  _524
REMARK  224  A    between atoms: _524  and  _525
REMARK  225  A    between atoms: _524  and  _527
REMARK  226  A    between atoms: _527  and  _528
REMARK  227  A    between atoms: _534  and  _536
REMARK  228  A    between atoms: _536  and  _537
REMARK  229  A    between atoms: _536  and  _539
REMARK  230  A    between atoms: _539  and  _540
REMARK  231  A    between atoms: _543  and  _545
REMARK  232  A    between atoms: _545  and  _546
REMARK  233  A    between atoms: _545  and  _548
REMARK  234  A    between atoms: _551  and  _553
REMARK  235  A    between atoms: _553  and  _554
REMARK  236  A    between atoms: _556  and  _558
REMARK  237  A    between atoms: _558  and  _559
REMARK  238  A    between atoms: _558  and  _561
REMARK  239  A    between atoms: _561  and  _562
REMARK  240  A    between atoms: _565  and  _567
REMARK  241  A    between atoms: _567  and  _568
REMARK  242  A    between atoms: _567  and  _570
REMARK  243  A    between atoms: _570  and  _571
REMARK  244  A    between atoms: _571  and  _572
REMARK  245  A    between atoms: _572  and  _573
REMARK  246  A    between atoms: _573  and  _574
REMARK  247  A    between atoms: _578  and  _580
REMARK  248  A    between atoms: _580  and  _581
REMARK  249  A    between atoms: _580  and  _583
REMARK                            x       y       z     vdW  Elec       q    Type
REMARK                         _______ _______ _______ _____ _____    ______ ____
ROOT
ATOM      1  O   HOH     1      -3.143  -0.395 -23.220  0.00  0.00    +0.000 OA
ENDROOT
TORSDOF 0
REMARK  Name = ../refined-set-2016/4o07/4o07_pocket.pdb
REMARK  249 active torsions:
REMARK  status: ('A' for Active; 'I' for Inactive)
REMARK    1  A    between atoms: _1  and  _3
REMARK    2  A    between atoms: _3  and  _4
REMARK    3  A    between atoms: _3  and  _6
REMARK    4  A    between atoms: _6  and  _7
REMARK    5  A    between atoms: _13  and  _15
REMARK    6  A    between atoms: _15  and  _16
REMARK    7  A    between atoms: _15  and  _18
REMARK    8  A    between atoms: _18  and  _19
REMARK    9  A    between atoms: _19  and  _20
REMARK   10  A    between atoms: _25  and  _27
REMARK   11  A    between atoms: _27  and  _28
REMARK   12  A    between atoms: _27  and  _30
REMARK   13  A    between atoms: _30  and  _31
REMARK   14  A    between atoms: _34  and  _36
REMARK   15  A    between atoms: _36  and  _37
REMARK   16  A    between atoms: _36  and  _39
REMARK   17  A    between atoms: _39  and  _40
REMARK   18  A    between atoms: _40  and  _41
REMARK   19  A    between atoms: _44  and  _46
REMARK   20  A    between atoms: _46  and  _47
REMARK   21  A    between atoms: _46  and  _49
REMARK   22  A    between atoms: _49  and  _50
REMARK   23  A    between atoms: _53  and  _55
REMARK   24  A    between atoms: _55  and  _56
REMARK   25  A    between atoms: _55  and  _58
REMARK   26  A    between atoms: _58  and  _59
REMARK   27  A    between atoms: _62  and  _64
REMARK   28  A    between atoms: _64  and  _65
REMARK   29  A    between atoms: _64  and  _67
REMARK   30  A    between atoms: _67  and  _68
REMARK   31  A    between atoms: _70  and  _72
REMARK   32  A    between atoms: _72  and  _73
REMARK   33  A    between atoms: _72  and  _75
REMARK   34  A    between atoms: _75  and  _76
REMARK   35  A    between atoms: _81  and  _83
REMARK   36  A    between atoms: _83  and  _84
REMARK   37  A    between atoms: _83  and  _86
REMARK   38  A    between atoms: _86  and  _87
REMARK   39  A    between atoms: _89  and  _91
REMARK   40  A    between atoms: _91  and  _92
REMARK   41  A    between atoms: _91  and  _94
REMARK   42  A    between atoms: _94  and  _95
REMARK   43  A    between atoms: _97  and  _99
REMARK   44  A    between atoms: _99  and  _100
REMARK   45  A    between atoms: _99  and  _102
REMARK   46  A    between atoms: _102  and  _103
REMARK   47  A    between atoms: _106  and  _108
REMARK   48  A    between atoms: _108  and  _109
REMARK   49  A    between atoms: _112  and  _114
REMARK   50  A    between atoms: _114  and  _115
REMARK   51  A    between atoms: _114  and  _117
REMARK   52  A    between atoms: _117  and  _118
REMARK   53  A    between atoms: _121  and  _123
REMARK   54  A    between atoms: _123  and  _124
REMARK   55  A    between atoms: _123  and  _126
REMARK   56  A    between atoms: _126  and  _127
REMARK   57  A    between atoms: _130  and  _132
REMARK   58  A    between atoms: _132  and  _133
REMARK   59  A    between atoms: _132  and  _135
REMARK   60  A    between atoms: _135  and  _136
REMARK   61  A    between atoms: _136  and  _137
REMARK   62  A    between atoms: _137  and  _138
REMARK   63  A    between atoms: _138  and  _139
REMARK   64  A    between atoms: _143  and  _145
REMARK   65  A    between atoms: _145  and  _146
REMARK   66  A    between atoms: _145  and  _148
REMARK   67  A    between atoms: _148  and  _149
REMARK   68  A    between atoms: _152  and  _154
REMARK   69  A    between atoms: _154  and  _155
REMARK   70  A    between atoms: _154  and  _157
REMARK   71  A    between atoms: _157  and  _158
REMARK   72  A    between atoms: _161  and  _163
REMARK   73  A    between atoms: _163  and  _164
REMARK   74  A    between atoms: _163  and  _166
REMARK   75  A    between atoms: _169  and  _171
REMARK   76  A    between atoms: _171  and  _172
REMARK   77  A    between atoms: _171  and  _174
REMARK   78  A    between atoms: _174  and  _175
REMARK   79  A    between atoms: _178  and  _180
REMARK   80  A    between atoms: _180  and  _181
REMARK   81  A    between atoms: _180  and  _183
REMARK   82  A    between atoms: _183  and  _184
REMARK   83  A    between atoms: _187  and  _189
REMARK   84  A    between atoms: _189  and  _190
REMARK   85  A    between atoms: _192  and  _194
REMARK   86  A    between atoms: _194  and  _195
REMARK   87  A    between atoms: _194  and  _197
REMARK   88  A    between atoms: _197  and  _198
REMARK   89  A    between atoms: _201  and  _203
REMARK   90  A    between atoms: _203  and  _204
REMARK   91  A    between atoms: _206  and  _208
REMARK   92  A    between atoms: _208  and  _209
REMARK   93  A    between atoms: _208  and  _211
REMARK   94  A    between atoms: _211  and  _212
REMARK   95  A    between atoms: _212  and  _213
REMARK   96  A    between atoms: _215  and  _217
REMARK   97  A    between atoms: _217  and  _218
REMARK   98  A    between atoms: _217  and  _220
REMARK   99  A    between atoms: _220  and  _221
REMARK  100  A    between atoms: _224  and  _226
REMARK  101  A    between atoms: _226  and  _227
REMARK  102  A    between atoms: _226  and  _229
REMARK  103  A    between atoms: _229  and  _230
REMARK  104  A    between atoms: _230  and  _231
REMARK  105  A    between atoms: _231  and  _232
REMARK  106  A    between atoms: _232  and  _233
REMARK  107  A    between atoms: _237  and  _239
REMARK  108  A    between atoms: _239  and  _240
REMARK  109  A    between atoms: _243  and  _245
REMARK  110  A    between atoms: _245  and  _246
REMARK  111  A    between atoms: _245  and  _248
REMARK  112  A    between atoms: _248  and  _249
REMARK  113  A    between atoms: _252  and  _254
REMARK  114  A    between atoms: _254  and  _255
REMARK  115  A    between atoms: _254  and  _257
REMARK  116  A    between atoms: _257  and  _258
REMARK  117  A    between atoms: _261  and  _263
REMARK  118  A    between atoms: _263  and  _264
REMARK  119  A    between atoms: _263  and  _266
REMARK  120  A    between atoms: _266  and  _267
REMARK  121  A    between atoms: _270  and  _272
REMARK  122  A    between atoms: _272  and  _273
REMARK  123  A    between atoms: _272  and  _275
REMARK  124  A    between atoms: _275  and  _276
REMARK  125  A    between atoms: _281  and  _283
REMARK  126  A    between atoms: _283  and  _284
REMARK  127  A    between atoms: _283  and  _286
REMARK  128  A    between atoms: _286  and  _287
REMARK  129  A    between atoms: _292  and  _294
REMARK  130  A    between atoms: _294  and  _295
REMARK  131  A    between atoms: _294  and  _297
REMARK  132  A    between atoms: _297  and  _298
REMARK  133  A    between atoms: _301  and  _303
REMARK  134  A    between atoms: _303  and  _304
REMARK  135  A    between atoms: _306  and  _308
REMARK  136  A    between atoms: _308  and  _309
REMARK  137  A    between atoms: _308  and  _311
REMARK  138  A    between atoms: _311  and  _312
REMARK  139  A    between atoms: _315  and  _317
REMARK  140  A    between atoms: _317  and  _318
REMARK  141  A    between atoms: _317  and  _320
REMARK  142  A    between atoms: _320  and  _321
REMARK  143  A    between atoms: _324  and  _326
REMARK  144  A    between atoms: _326  and  _327
REMARK  145  A    between atoms: _330  and  _332
REMARK  146  A    between atoms: _332  and  _333
REMARK  147  A    between atoms: _332  and  _335
REMARK  148  A    between atoms: _335  and  _336
REMARK  149  A    between atoms: _336  and  _337
REMARK  150  A    between atoms: _337  and  _338
REMARK  151  A    between atoms: _338  and  _339
REMARK  152  A    between atoms: _343  and  _345
REMARK  153  A    between atoms: _345  and  _346
REMARK  154  A    between atoms: _348  and  _350
REMARK  155  A    between atoms: _350  and  _351
REMARK  156  A    between atoms: _350  and  _353
REMARK  157  A    between atoms: _353  and  _354
REMARK  158  A    between atoms: _357  and  _359
REMARK  159  A    between atoms: _359  and  _360
REMARK  160  A    between atoms: _362  and  _364
REMARK  161  A    between atoms: _364  and  _365
REMARK  162  A    between atoms: _364  and  _367
REMARK  163  A    between atoms: _367  and  _368
REMARK  164  A    between atoms: _374  and  _376
REMARK  165  A    between atoms: _376  and  _377
REMARK  166  A    between atoms: _379  and  _381
REMARK  167  A    between atoms: _381  and  _382
REMARK  168  A    between atoms: _381  and  _384
REMARK  169  A    between atoms: _387  and  _389
REMARK  170  A    between atoms: _389  and  _390
REMARK  171  A    between atoms: _392  and  _394
REMARK  172  A    between atoms: _394  and  _395
REMARK  173  A    between atoms: _394  and  _397
REMARK  174  A    between atoms: _397  and  _398
REMARK  175  A    between atoms: _404  and  _406
REMARK  176  A    between atoms: _406  and  _407
REMARK  177  A    between atoms: _406  and  _409
REMARK  178  A    between atoms: _409  and  _410
REMARK  179  A    between atoms: _415  and  _416
REMARK  180  A    between atoms: _418  and  _420
REMARK  181  A    between atoms: _420  and  _421
REMARK  182  A    between atoms: _420  and  _423
REMARK  183  A    between atoms: _423  and  _424
REMARK  184  A    between atoms: _429  and  _430
REMARK  185  A    between atoms: _432  and  _434
REMARK  186  A    between atoms: _434  and  _435
REMARK  187  A    between atoms: _434  and  _437
REMARK  188  A    between atoms: _440  and  _442
REMARK  189  A    between atoms: _442  and  _443
REMARK  190  A    between atoms: _442  and  _445
REMARK  191  A    between atoms: _445  and  _446
REMARK  192  A    between atoms: _449  and  _451
REMARK  193  A    between atoms: _451  and  _452
REMARK  194  A    between atoms: _451  and  _454
REMARK  195  A    between atoms: _457  and  _459
REMARK  196  A    between atoms: _459  and  _460
REMARK  197  A    between atoms: _459  and  _462
REMARK  198  A    between atoms: _462  and  _463
REMARK  199  A    between atoms: _466  and  _468
REMARK  200  A    between atoms: _468  and  _469
REMARK  201  A    between atoms: _468  and  _471
REMARK  202  A    between atoms: _471  and  _472
REMARK  203  A    between atoms: _475  and  _477
REMARK  204  A    between atoms: _477  and  _478
REMARK  205  A    between atoms: _477  and  _480
REMARK  206  A    between atoms: _480  and  _481
REMARK  207  A    between atoms: _481  and  _482
REMARK  208  A    between atoms: _482  and  _483
REMARK  209  A    between atoms: _483  and  _484
REMARK  210  A    between atoms: _488  and  _490
REMARK  211  A    between atoms: _490  and  _491
REMARK  212  A    between atoms: _490  and  _493
REMARK  213  A    between atoms: _493  and  _494
REMARK  214  A    between atoms: _504  and  _506
REMARK  215  A    between atoms: _506  and  _507
REMARK  216  A    between atoms: _506  and  _509
REMARK  217  A    between atoms: _509  and  _510
REMARK  218  A    between atoms: _510  and  _511
REMARK  219  A    between atoms: _514  and  _516
REMARK  220  A    between atoms: _516  and  _517
REMARK  221  A    between atoms: _516  and  _519
REMARK  222  A    between atoms: _519  and  _520
REMARK  223  A    between atoms: _522  and  _524
REMARK  224  A    between atoms: _524  and  _525
REMARK  225  A    between atoms: _524  and  _527
REMARK  226  A    between atoms: _527  and  _528
REMARK  227  A    between atoms: _534  and  _536
REMARK  228  A    between atoms: _536  and  _537
REMARK  229  A    between atoms: _536  and  _539
REMARK  230  A    between atoms: _539  and  _540
REMARK  231  A    between atoms: _543  and  _545
REMARK  232  A    between atoms: _545  and  _546
REMARK  233  A    between atoms: _545  and  _548
REMARK  234  A    between atoms: _551  and  _553
REMARK  235  A    between atoms: _553  and  _554
REMARK  236  A    between atoms: _556  and  _558
REMARK  237  A    between atoms: _558  and  _559
REMARK  238  A    between atoms: _558  and  _561
REMARK  239  A    between atoms: _561  and  _562
REMARK  240  A    between atoms: _565  and  _567
REMARK  241  A    between atoms: _567  and  _568
REMARK  242  A    between atoms: _567  and  _570
REMARK  243  A    between atoms: _570  and  _571
REMARK  244  A    between atoms: _571  and  _572
REMARK  245  A    between atoms: _572  and  _573
REMARK  246  A    between atoms: _573  and  _574
REMARK  247  A    between atoms: _578  and  _580
REMARK  248  A    between atoms: _580  and  _581
REMARK  249  A    between atoms: _580  and  _583
REMARK                            x       y       z     vdW  Elec       q    Type
REMARK                         _______ _______ _______ _____ _____    ______ ____
ROOT
ATOM      1  O   HOH     1       2.201  -7.952 -17.001  0.00  0.00    +0.000 OA
ENDROOT
TORSDOF 0
REMARK  Name = ../refined-set-2016/4o07/4o07_pocket.pdb
REMARK  249 active torsions:
REMARK  status: ('A' for Active; 'I' for Inactive)
REMARK    1  A    between atoms: _1  and  _3
REMARK    2  A    between atoms: _3  and  _4
REMARK    3  A    between atoms: _3  and  _6
REMARK    4  A    between atoms: _6  and  _7
REMARK    5  A    between atoms: _13  and  _15
REMARK    6  A    between atoms: _15  and  _16
REMARK    7  A    between atoms: _15  and  _18
REMARK    8  A    between atoms: _18  and  _19
REMARK    9  A    between atoms: _19  and  _20
REMARK   10  A    between atoms: _25  and  _27
REMARK   11  A    between atoms: _27  and  _28
REMARK   12  A    between atoms: _27  and  _30
REMARK   13  A    between atoms: _30  and  _31
REMARK   14  A    between atoms: _34  and  _36
REMARK   15  A    between atoms: _36  and  _37
REMARK   16  A    between atoms: _36  and  _39
REMARK   17  A    between atoms: _39  and  _40
REMARK   18  A    between atoms: _40  and  _41
REMARK   19  A    between atoms: _44  and  _46
REMARK   20  A    between atoms: _46  and  _47
REMARK   21  A    between atoms: _46  and  _49
REMARK   22  A    between atoms: _49  and  _50
REMARK   23  A    between atoms: _53  and  _55
REMARK   24  A    between atoms: _55  and  _56
REMARK   25  A    between atoms: _55  and  _58
REMARK   26  A    between atoms: _58  and  _59
REMARK   27  A    between atoms: _62  and  _64
REMARK   28  A    between atoms: _64  and  _65
REMARK   29  A    between atoms: _64  and  _67
REMARK   30  A    between atoms: _67  and  _68
REMARK   31  A    between atoms: _70  and  _72
REMARK   32  A    between atoms: _72  and  _73
REMARK   33  A    between atoms: _72  and  _75
REMARK   34  A    between atoms: _75  and  _76
REMARK   35  A    between atoms: _81  and  _83
REMARK   36  A    between atoms: _83  and  _84
REMARK   37  A    between atoms: _83  and  _86
REMARK   38  A    between atoms: _86  and  _87
REMARK   39  A    between atoms: _89  and  _91
REMARK   40  A    between atoms: _91  and  _92
REMARK   41  A    between atoms: _91  and  _94
REMARK   42  A    between atoms: _94  and  _95
REMARK   43  A    between atoms: _97  and  _99
REMARK   44  A    between atoms: _99  and  _100
REMARK   45  A    between atoms: _99  and  _102
REMARK   46  A    between atoms: _102  and  _103
REMARK   47  A    between atoms: _106  and  _108
REMARK   48  A    between atoms: _108  and  _109
REMARK   49  A    between atoms: _112  and  _114
REMARK   50  A    between atoms: _114  and  _115
REMARK   51  A    between atoms: _114  and  _117
REMARK   52  A    between atoms: _117  and  _118
REMARK   53  A    between atoms: _121  and  _123
REMARK   54  A    between atoms: _123  and  _124
REMARK   55  A    between atoms: _123  and  _126
REMARK   56  A    between atoms: _126  and  _127
REMARK   57  A    between atoms: _130  and  _132
REMARK   58  A    between atoms: _132  and  _133
REMARK   59  A    between atoms: _132  and  _135
REMARK   60  A    between atoms: _135  and  _136
REMARK   61  A    between atoms: _136  and  _137
REMARK   62  A    between atoms: _137  and  _138
REMARK   63  A    between atoms: _138  and  _139
REMARK   64  A    between atoms: _143  and  _145
REMARK   65  A    between atoms: _145  and  _146
REMARK   66  A    between atoms: _145  and  _148
REMARK   67  A    between atoms: _148  and  _149
REMARK   68  A    between atoms: _152  and  _154
REMARK   69  A    between atoms: _154  and  _155
REMARK   70  A    between atoms: _154  and  _157
REMARK   71  A    between atoms: _157  and  _158
REMARK   72  A    between atoms: _161  and  _163
REMARK   73  A    between atoms: _163  and  _164
REMARK   74  A    between atoms: _163  and  _166
REMARK   75  A    between atoms: _169  and  _171
REMARK   76  A    between atoms: _171  and  _172
REMARK   77  A    between atoms: _171  and  _174
REMARK   78  A    between atoms: _174  and  _175
REMARK   79  A    between atoms: _178  and  _180
REMARK   80  A    between atoms: _180  and  _181
REMARK   81  A    between atoms: _180  and  _183
REMARK   82  A    between atoms: _183  and  _184
REMARK   83  A    between atoms: _187  and  _189
REMARK   84  A    between atoms: _189  and  _190
REMARK   85  A    between atoms: _192  and  _194
REMARK   86  A    between atoms: _194  and  _195
REMARK   87  A    between atoms: _194  and  _197
REMARK   88  A    between atoms: _197  and  _198
REMARK   89  A    between atoms: _201  and  _203
REMARK   90  A    between atoms: _203  and  _204
REMARK   91  A    between atoms: _206  and  _208
REMARK   92  A    between atoms: _208  and  _209
REMARK   93  A    between atoms: _208  and  _211
REMARK   94  A    between atoms: _211  and  _212
REMARK   95  A    between atoms: _212  and  _213
REMARK   96  A    between atoms: _215  and  _217
REMARK   97  A    between atoms: _217  and  _218
REMARK   98  A    between atoms: _217  and  _220
REMARK   99  A    between atoms: _220  and  _221
REMARK  100  A    between atoms: _224  and  _226
REMARK  101  A    between atoms: _226  and  _227
REMARK  102  A    between atoms: _226  and  _229
REMARK  103  A    between atoms: _229  and  _230
REMARK  104  A    between atoms: _230  and  _231
REMARK  105  A    between atoms: _231  and  _232
REMARK  106  A    between atoms: _232  and  _233
REMARK  107  A    between atoms: _237  and  _239
REMARK  108  A    between atoms: _239  and  _240
REMARK  109  A    between atoms: _243  and  _245
REMARK  110  A    between atoms: _245  and  _246
REMARK  111  A    between atoms: _245  and  _248
REMARK  112  A    between atoms: _248  and  _249
REMARK  113  A    between atoms: _252  and  _254
REMARK  114  A    between atoms: _254  and  _255
REMARK  115  A    between atoms: _254  and  _257
REMARK  116  A    between atoms: _257  and  _258
REMARK  117  A    between atoms: _261  and  _263
REMARK  118  A    between atoms: _263  and  _264
REMARK  119  A    between atoms: _263  and  _266
REMARK  120  A    between atoms: _266  and  _267
REMARK  121  A    between atoms: _270  and  _272
REMARK  122  A    between atoms: _272  and  _273
REMARK  123  A    between atoms: _272  and  _275
REMARK  124  A    between atoms: _275  and  _276
REMARK  125  A    between atoms: _281  and  _283
REMARK  126  A    between atoms: _283  and  _284
REMARK  127  A    between atoms: _283  and  _286
REMARK  128  A    between atoms: _286  and  _287
REMARK  129  A    between atoms: _292  and  _294
REMARK  130  A    between atoms: _294  and  _295
REMARK  131  A    between atoms: _294  and  _297
REMARK  132  A    between atoms: _297  and  _298
REMARK  133  A    between atoms: _301  and  _303
REMARK  134  A    between atoms: _303  and  _304
REMARK  135  A    between atoms: _306  and  _308
REMARK  136  A    between atoms: _308  and  _309
REMARK  137  A    between atoms: _308  and  _311
REMARK  138  A    between atoms: _311  and  _312
REMARK  139  A    between atoms: _315  and  _317
REMARK  140  A    between atoms: _317  and  _318
REMARK  141  A    between atoms: _317  and  _320
REMARK  142  A    between atoms: _320  and  _321
REMARK  143  A    between atoms: _324  and  _326
REMARK  144  A    between atoms: _326  and  _327
REMARK  145  A    between atoms: _330  and  _332
REMARK  146  A    between atoms: _332  and  _333
REMARK  147  A    between atoms: _332  and  _335
REMARK  148  A    between atoms: _335  and  _336
REMARK  149  A    between atoms: _336  and  _337
REMARK  150  A    between atoms: _337  and  _338
REMARK  151  A    between atoms: _338  and  _339
REMARK  152  A    between atoms: _343  and  _345
REMARK  153  A    between atoms: _345  and  _346
REMARK  154  A    between atoms: _348  and  _350
REMARK  155  A    between atoms: _350  and  _351
REMARK  156  A    between atoms: _350  and  _353
REMARK  157  A    between atoms: _353  and  _354
REMARK  158  A    between atoms: _357  and  _359
REMARK  159  A    between atoms: _359  and  _360
REMARK  160  A    between atoms: _362  and  _364
REMARK  161  A    between atoms: _364  and  _365
REMARK  162  A    between atoms: _364  and  _367
REMARK  163  A    between atoms: _367  and  _368
REMARK  164  A    between atoms: _374  and  _376
REMARK  165  A    between atoms: _376  and  _377
REMARK  166  A    between atoms: _379  and  _381
REMARK  167  A    between atoms: _381  and  _382
REMARK  168  A    between atoms: _381  and  _384
REMARK  169  A    between atoms: _387  and  _389
REMARK  170  A    between atoms: _389  and  _390
REMARK  171  A    between atoms: _392  and  _394
REMARK  172  A    between atoms: _394  and  _395
REMARK  173  A    between atoms: _394  and  _397
REMARK  174  A    between atoms: _397  and  _398
REMARK  175  A    between atoms: _404  and  _406
REMARK  176  A    between atoms: _406  and  _407
REMARK  177  A    between atoms: _406  and  _409
REMARK  178  A    between atoms: _409  and  _410
REMARK  179  A    between atoms: _415  and  _416
REMARK  180  A    between atoms: _418  and  _420
REMARK  181  A    between atoms: _420  and  _421
REMARK  182  A    between atoms: _420  and  _423
REMARK  183  A    between atoms: _423  and  _424
REMARK  184  A    between atoms: _429  and  _430
REMARK  185  A    between atoms: _432  and  _434
REMARK  186  A    between atoms: _434  and  _435
REMARK  187  A    between atoms: _434  and  _437
REMARK  188  A    between atoms: _440  and  _442
REMARK  189  A    between atoms: _442  and  _443
REMARK  190  A    between atoms: _442  and  _445
REMARK  191  A    between atoms: _445  and  _446
REMARK  192  A    between atoms: _449  and  _451
REMARK  193  A    between atoms: _451  and  _452
REMARK  194  A    between atoms: _451  and  _454
REMARK  195  A    between atoms: _457  and  _459
REMARK  196  A    between atoms: _459  and  _460
REMARK  197  A    between atoms: _459  and  _462
REMARK  198  A    between atoms: _462  and  _463
REMARK  199  A    between atoms: _466  and  _468
REMARK  200  A    between atoms: _468  and  _469
REMARK  201  A    between atoms: _468  and  _471
REMARK  202  A    between atoms: _471  and  _472
REMARK  203  A    between atoms: _475  and  _477
REMARK  204  A    between atoms: _477  and  _478
REMARK  205  A    between atoms: _477  and  _480
REMARK  206  A    between atoms: _480  and  _481
REMARK  207  A    between atoms: _481  and  _482
REMARK  208  A    between atoms: _482  and  _483
REMARK  209  A    between atoms: _483  and  _484
REMARK  210  A    between atoms: _488  and  _490
REMARK  211  A    between atoms: _490  and  _491
REMARK  212  A    between atoms: _490  and  _493
REMARK  213  A    between atoms: _493  and  _494
REMARK  214  A    between atoms: _504  and  _506
REMARK  215  A    between atoms: _506  and  _507
REMARK  216  A    between atoms: _506  and  _509
REMARK  217  A    between atoms: _509  and  _510
REMARK  218  A    between atoms: _510  and  _511
REMARK  219  A    between atoms: _514  and  _516
REMARK  220  A    between atoms: _516  and  _517
REMARK  221  A    between atoms: _516  and  _519
REMARK  222  A    between atoms: _519  and  _520
REMARK  223  A    between atoms: _522  and  _524
REMARK  224  A    between atoms: _524  and  _525
REMARK  225  A    between atoms: _524  and  _527
REMARK  226  A    between atoms: _527  and  _528
REMARK  227  A    between atoms: _534  and  _536
REMARK  228  A    between atoms: _536  and  _537
REMARK  229  A    between atoms: _536  and  _539
REMARK  230  A    between atoms: _539  and  _540
REMARK  231  A    between atoms: _543  and  _545
REMARK  232  A    between atoms: _545  and  _546
REMARK  233  A    between atoms: _545  and  _548
REMARK  234  A    between atoms: _551  and  _553
REMARK  235  A    between atoms: _553  and  _554
REMARK  236  A    between atoms: _556  and  _558
REMARK  237  A    between atoms: _558  and  _559
REMARK  238  A    between atoms: _558  and  _561
REMARK  239  A    between atoms: _561  and  _562
REMARK  240  A    between atoms: _565  and  _567
REMARK  241  A    between atoms: _567  and  _568
REMARK  242  A    between atoms: _567  and  _570
REMARK  243  A    between atoms: _570  and  _571
REMARK  244  A    between atoms: _571  and  _572
REMARK  245  A    between atoms: _572  and  _573
REMARK  246  A    between atoms: _573  and  _574
REMARK  247  A    between atoms: _578  and  _580
REMARK  248  A    between atoms: _580  and  _581
REMARK  249  A    between atoms: _580  and  _583
REMARK                            x       y       z     vdW  Elec       q    Type
REMARK                         _______ _______ _______ _____ _____    ______ ____
ROOT
ATOM      1  O   HOH     1       3.491  -4.548 -19.297  0.00  0.00    +0.000 OA
ENDROOT
TORSDOF 0
REMARK  Name = ../refined-set-2016/4o07/4o07_pocket.pdb
REMARK  249 active torsions:
REMARK  status: ('A' for Active; 'I' for Inactive)
REMARK    1  A    between atoms: _1  and  _3
REMARK    2  A    between atoms: _3  and  _4
REMARK    3  A    between atoms: _3  and  _6
REMARK    4  A    between atoms: _6  and  _7
REMARK    5  A    between atoms: _13  and  _15
REMARK    6  A    between atoms: _15  and  _16
REMARK    7  A    between atoms: _15  and  _18
REMARK    8  A    between atoms: _18  and  _19
REMARK    9  A    between atoms: _19  and  _20
REMARK   10  A    between atoms: _25  and  _27
REMARK   11  A    between atoms: _27  and  _28
REMARK   12  A    between atoms: _27  and  _30
REMARK   13  A    between atoms: _30  and  _31
REMARK   14  A    between atoms: _34  and  _36
REMARK   15  A    between atoms: _36  and  _37
REMARK   16  A    between atoms: _36  and  _39
REMARK   17  A    between atoms: _39  and  _40
REMARK   18  A    between atoms: _40  and  _41
REMARK   19  A    between atoms: _44  and  _46
REMARK   20  A    between atoms: _46  and  _47
REMARK   21  A    between atoms: _46  and  _49
REMARK   22  A    between atoms: _49  and  _50
REMARK   23  A    between atoms: _53  and  _55
REMARK   24  A    between atoms: _55  and  _56
REMARK   25  A    between atoms: _55  and  _58
REMARK   26  A    between atoms: _58  and  _59
REMARK   27  A    between atoms: _62  and  _64
REMARK   28  A    between atoms: _64  and  _65
REMARK   29  A    between atoms: _64  and  _67
REMARK   30  A    between atoms: _67  and  _68
REMARK   31  A    between atoms: _70  and  _72
REMARK   32  A    between atoms: _72  and  _73
REMARK   33  A    between atoms: _72  and  _75
REMARK   34  A    between atoms: _75  and  _76
REMARK   35  A    between atoms: _81  and  _83
REMARK   36  A    between atoms: _83  and  _84
REMARK   37  A    between atoms: _83  and  _86
REMARK   38  A    between atoms: _86  and  _87
REMARK   39  A    between atoms: _89  and  _91
REMARK   40  A    between atoms: _91  and  _92
REMARK   41  A    between atoms: _91  and  _94
REMARK   42  A    between atoms: _94  and  _95
REMARK   43  A    between atoms: _97  and  _99
REMARK   44  A    between atoms: _99  and  _100
REMARK   45  A    between atoms: _99  and  _102
REMARK   46  A    between atoms: _102  and  _103
REMARK   47  A    between atoms: _106  and  _108
REMARK   48  A    between atoms: _108  and  _109
REMARK   49  A    between atoms: _112  and  _114
REMARK   50  A    between atoms: _114  and  _115
REMARK   51  A    between atoms: _114  and  _117
REMARK   52  A    between atoms: _117  and  _118
REMARK   53  A    between atoms: _121  and  _123
REMARK   54  A    between atoms: _123  and  _124
REMARK   55  A    between atoms: _123  and  _126
REMARK   56  A    between atoms: _126  and  _127
REMARK   57  A    between atoms: _130  and  _132
REMARK   58  A    between atoms: _132  and  _133
REMARK   59  A    between atoms: _132  and  _135
REMARK   60  A    between atoms: _135  and  _136
REMARK   61  A    between atoms: _136  and  _137
REMARK   62  A    between atoms: _137  and  _138
REMARK   63  A    between atoms: _138  and  _139
REMARK   64  A    between atoms: _143  and  _145
REMARK   65  A    between atoms: _145  and  _146
REMARK   66  A    between atoms: _145  and  _148
REMARK   67  A    between atoms: _148  and  _149
REMARK   68  A    between atoms: _152  and  _154
REMARK   69  A    between atoms: _154  and  _155
REMARK   70  A    between atoms: _154  and  _157
REMARK   71  A    between atoms: _157  and  _158
REMARK   72  A    between atoms: _161  and  _163
REMARK   73  A    between atoms: _163  and  _164
REMARK   74  A    between atoms: _163  and  _166
REMARK   75  A    between atoms: _169  and  _171
REMARK   76  A    between atoms: _171  and  _172
REMARK   77  A    between atoms: _171  and  _174
REMARK   78  A    between atoms: _174  and  _175
REMARK   79  A    between atoms: _178  and  _180
REMARK   80  A    between atoms: _180  and  _181
REMARK   81  A    between atoms: _180  and  _183
REMARK   82  A    between atoms: _183  and  _184
REMARK   83  A    between atoms: _187  and  _189
REMARK   84  A    between atoms: _189  and  _190
REMARK   85  A    between atoms: _192  and  _194
REMARK   86  A    between atoms: _194  and  _195
REMARK   87  A    between atoms: _194  and  _197
REMARK   88  A    between atoms: _197  and  _198
REMARK   89  A    between atoms: _201  and  _203
REMARK   90  A    between atoms: _203  and  _204
REMARK   91  A    between atoms: _206  and  _208
REMARK   92  A    between atoms: _208  and  _209
REMARK   93  A    between atoms: _208  and  _211
REMARK   94  A    between atoms: _211  and  _212
REMARK   95  A    between atoms: _212  and  _213
REMARK   96  A    between atoms: _215  and  _217
REMARK   97  A    between atoms: _217  and  _218
REMARK   98  A    between atoms: _217  and  _220
REMARK   99  A    between atoms: _220  and  _221
REMARK  100  A    between atoms: _224  and  _226
REMARK  101  A    between atoms: _226  and  _227
REMARK  102  A    between atoms: _226  and  _229
REMARK  103  A    between atoms: _229  and  _230
REMARK  104  A    between atoms: _230  and  _231
REMARK  105  A    between atoms: _231  and  _232
REMARK  106  A    between atoms: _232  and  _233
REMARK  107  A    between atoms: _237  and  _239
REMARK  108  A    between atoms: _239  and  _240
REMARK  109  A    between atoms: _243  and  _245
REMARK  110  A    between atoms: _245  and  _246
REMARK  111  A    between atoms: _245  and  _248
REMARK  112  A    between atoms: _248  and  _249
REMARK  113  A    between atoms: _252  and  _254
REMARK  114  A    between atoms: _254  and  _255
REMARK  115  A    between atoms: _254  and  _257
REMARK  116  A    between atoms: _257  and  _258
REMARK  117  A    between atoms: _261  and  _263
REMARK  118  A    between atoms: _263  and  _264
REMARK  119  A    between atoms: _263  and  _266
REMARK  120  A    between atoms: _266  and  _267
REMARK  121  A    between atoms: _270  and  _272
REMARK  122  A    between atoms: _272  and  _273
REMARK  123  A    between atoms: _272  and  _275
REMARK  124  A    between atoms: _275  and  _276
REMARK  125  A    between atoms: _281  and  _283
REMARK  126  A    between atoms: _283  and  _284
REMARK  127  A    between atoms: _283  and  _286
REMARK  128  A    between atoms: _286  and  _287
REMARK  129  A    between atoms: _292  and  _294
REMARK  130  A    between atoms: _294  and  _295
REMARK  131  A    between atoms: _294  and  _297
REMARK  132  A    between atoms: _297  and  _298
REMARK  133  A    between atoms: _301  and  _303
REMARK  134  A    between atoms: _303  and  _304
REMARK  135  A    between atoms: _306  and  _308
REMARK  136  A    between atoms: _308  and  _309
REMARK  137  A    between atoms: _308  and  _311
REMARK  138  A    between atoms: _311  and  _312
REMARK  139  A    between atoms: _315  and  _317
REMARK  140  A    between atoms: _317  and  _318
REMARK  141  A    between atoms: _317  and  _320
REMARK  142  A    between atoms: _320  and  _321
REMARK  143  A    between atoms: _324  and  _326
REMARK  144  A    between atoms: _326  and  _327
REMARK  145  A    between atoms: _330  and  _332
REMARK  146  A    between atoms: _332  and  _333
REMARK  147  A    between atoms: _332  and  _335
REMARK  148  A    between atoms: _335  and  _336
REMARK  149  A    between atoms: _336  and  _337
REMARK  150  A    between atoms: _337  and  _338
REMARK  151  A    between atoms: _338  and  _339
REMARK  152  A    between atoms: _343  and  _345
REMARK  153  A    between atoms: _345  and  _346
REMARK  154  A    between atoms: _348  and  _350
REMARK  155  A    between atoms: _350  and  _351
REMARK  156  A    between atoms: _350  and  _353
REMARK  157  A    between atoms: _353  and  _354
REMARK  158  A    between atoms: _357  and  _359
REMARK  159  A    between atoms: _359  and  _360
REMARK  160  A    between atoms: _362  and  _364
REMARK  161  A    between atoms: _364  and  _365
REMARK  162  A    between atoms: _364  and  _367
REMARK  163  A    between atoms: _367  and  _368
REMARK  164  A    between atoms: _374  and  _376
REMARK  165  A    between atoms: _376  and  _377
REMARK  166  A    between atoms: _379  and  _381
REMARK  167  A    between atoms: _381  and  _382
REMARK  168  A    between atoms: _381  and  _384
REMARK  169  A    between atoms: _387  and  _389
REMARK  170  A    between atoms: _389  and  _390
REMARK  171  A    between atoms: _392  and  _394
REMARK  172  A    between atoms: _394  and  _395
REMARK  173  A    between atoms: _394  and  _397
REMARK  174  A    between atoms: _397  and  _398
REMARK  175  A    between atoms: _404  and  _406
REMARK  176  A    between atoms: _406  and  _407
REMARK  177  A    between atoms: _406  and  _409
REMARK  178  A    between atoms: _409  and  _410
REMARK  179  A    between atoms: _415  and  _416
REMARK  180  A    between atoms: _418  and  _420
REMARK  181  A    between atoms: _420  and  _421
REMARK  182  A    between atoms: _420  and  _423
REMARK  183  A    between atoms: _423  and  _424
REMARK  184  A    between atoms: _429  and  _430
REMARK  185  A    between atoms: _432  and  _434
REMARK  186  A    between atoms: _434  and  _435
REMARK  187  A    between atoms: _434  and  _437
REMARK  188  A    between atoms: _440  and  _442
REMARK  189  A    between atoms: _442  and  _443
REMARK  190  A    between atoms: _442  and  _445
REMARK  191  A    between atoms: _445  and  _446
REMARK  192  A    between atoms: _449  and  _451
REMARK  193  A    between atoms: _451  and  _452
REMARK  194  A    between atoms: _451  and  _454
REMARK  195  A    between atoms: _457  and  _459
REMARK  196  A    between atoms: _459  and  _460
REMARK  197  A    between atoms: _459  and  _462
REMARK  198  A    between atoms: _462  and  _463
REMARK  199  A    between atoms: _466  and  _468
REMARK  200  A    between atoms: _468  and  _469
REMARK  201  A    between atoms: _468  and  _471
REMARK  202  A    between atoms: _471  and  _472
REMARK  203  A    between atoms: _475  and  _477
REMARK  204  A    between atoms: _477  and  _478
REMARK  205  A    between atoms: _477  and  _480
REMARK  206  A    between atoms: _480  and  _481
REMARK  207  A    between atoms: _481  and  _482
REMARK  208  A    between atoms: _482  and  _483
REMARK  209  A    between atoms: _483  and  _484
REMARK  210  A    between atoms: _488  and  _490
REMARK  211  A    between atoms: _490  and  _491
REMARK  212  A    between atoms: _490  and  _493
REMARK  213  A    between atoms: _493  and  _494
REMARK  214  A    between atoms: _504  and  _506
REMARK  215  A    between atoms: _506  and  _507
REMARK  216  A    between atoms: _506  and  _509
REMARK  217  A    between atoms: _509  and  _510
REMARK  218  A    between atoms: _510  and  _511
REMARK  219  A    between atoms: _514  and  _516
REMARK  220  A    between atoms: _516  and  _517
REMARK  221  A    between atoms: _516  and  _519
REMARK  222  A    between atoms: _519  and  _520
REMARK  223  A    between atoms: _522  and  _524
REMARK  224  A    between atoms: _524  and  _525
REMARK  225  A    between atoms: _524  and  _527
REMARK  226  A    between atoms: _527  and  _528
REMARK  227  A    between atoms: _534  and  _536
REMARK  228  A    between atoms: _536  and  _537
REMARK  229  A    between atoms: _536  and  _539
REMARK  230  A    between atoms: _539  and  _540
REMARK  231  A    between atoms: _543  and  _545
REMARK  232  A    between atoms: _545  and  _546
REMARK  233  A    between atoms: _545  and  _548
REMARK  234  A    between atoms: _551  and  _553
REMARK  235  A    between atoms: _553  and  _554
REMARK  236  A    between atoms: _556  and  _558
REMARK  237  A    between atoms: _558  and  _559
REMARK  238  A    between atoms: _558  and  _561
REMARK  239  A    between atoms: _561  and  _562
REMARK  240  A    between atoms: _565  and  _567
REMARK  241  A    between atoms: _567  and  _568
REMARK  242  A    between atoms: _567  and  _570
REMARK  243  A    between atoms: _570  and  _571
REMARK  244  A    between atoms: _571  and  _572
REMARK  245  A    between atoms: _572  and  _573
REMARK  246  A    between atoms: _573  and  _574
REMARK  247  A    between atoms: _578  and  _580
REMARK  248  A    between atoms: _580  and  _581
REMARK  249  A    between atoms: _580  and  _583
REMARK                            x       y       z     vdW  Elec       q    Type
REMARK                         _______ _______ _______ _____ _____    ______ ____
ROOT
ATOM      1  O   HOH     1       1.998  -4.065 -23.145  0.00  0.00    +0.000 OA
ENDROOT
TORSDOF 0
REMARK  Name = ../refined-set-2016/4o07/4o07_pocket.pdb
REMARK  249 active torsions:
REMARK  status: ('A' for Active; 'I' for Inactive)
REMARK    1  A    between atoms: _1  and  _3
REMARK    2  A    between atoms: _3  and  _4
REMARK    3  A    between atoms: _3  and  _6
REMARK    4  A    between atoms: _6  and  _7
REMARK    5  A    between atoms: _13  and  _15
REMARK    6  A    between atoms: _15  and  _16
REMARK    7  A    between atoms: _15  and  _18
REMARK    8  A    between atoms: _18  and  _19
REMARK    9  A    between atoms: _19  and  _20
REMARK   10  A    between atoms: _25  and  _27
REMARK   11  A    between atoms: _27  and  _28
REMARK   12  A    between atoms: _27  and  _30
REMARK   13  A    between atoms: _30  and  _31
REMARK   14  A    between atoms: _34  and  _36
REMARK   15  A    between atoms: _36  and  _37
REMARK   16  A    between atoms: _36  and  _39
REMARK   17  A    between atoms: _39  and  _40
REMARK   18  A    between atoms: _40  and  _41
REMARK   19  A    between atoms: _44  and  _46
REMARK   20  A    between atoms: _46  and  _47
REMARK   21  A    between atoms: _46  and  _49
REMARK   22  A    between atoms: _49  and  _50
REMARK   23  A    between atoms: _53  and  _55
REMARK   24  A    between atoms: _55  and  _56
REMARK   25  A    between atoms: _55  and  _58
REMARK   26  A    between atoms: _58  and  _59
REMARK   27  A    between atoms: _62  and  _64
REMARK   28  A    between atoms: _64  and  _65
REMARK   29  A    between atoms: _64  and  _67
REMARK   30  A    between atoms: _67  and  _68
REMARK   31  A    between atoms: _70  and  _72
REMARK   32  A    between atoms: _72  and  _73
REMARK   33  A    between atoms: _72  and  _75
REMARK   34  A    between atoms: _75  and  _76
REMARK   35  A    between atoms: _81  and  _83
REMARK   36  A    between atoms: _83  and  _84
REMARK   37  A    between atoms: _83  and  _86
REMARK   38  A    between atoms: _86  and  _87
REMARK   39  A    between atoms: _89  and  _91
REMARK   40  A    between atoms: _91  and  _92
REMARK   41  A    between atoms: _91  and  _94
REMARK   42  A    between atoms: _94  and  _95
REMARK   43  A    between atoms: _97  and  _99
REMARK   44  A    between atoms: _99  and  _100
REMARK   45  A    between atoms: _99  and  _102
REMARK   46  A    between atoms: _102  and  _103
REMARK   47  A    between atoms: _106  and  _108
REMARK   48  A    between atoms: _108  and  _109
REMARK   49  A    between atoms: _112  and  _114
REMARK   50  A    between atoms: _114  and  _115
REMARK   51  A    between atoms: _114  and  _117
REMARK   52  A    between atoms: _117  and  _118
REMARK   53  A    between atoms: _121  and  _123
REMARK   54  A    between atoms: _123  and  _124
REMARK   55  A    between atoms: _123  and  _126
REMARK   56  A    between atoms: _126  and  _127
REMARK   57  A    between atoms: _130  and  _132
REMARK   58  A    between atoms: _132  and  _133
REMARK   59  A    between atoms: _132  and  _135
REMARK   60  A    between atoms: _135  and  _136
REMARK   61  A    between atoms: _136  and  _137
REMARK   62  A    between atoms: _137  and  _138
REMARK   63  A    between atoms: _138  and  _139
REMARK   64  A    between atoms: _143  and  _145
REMARK   65  A    between atoms: _145  and  _146
REMARK   66  A    between atoms: _145  and  _148
REMARK   67  A    between atoms: _148  and  _149
REMARK   68  A    between atoms: _152  and  _154
REMARK   69  A    between atoms: _154  and  _155
REMARK   70  A    between atoms: _154  and  _157
REMARK   71  A    between atoms: _157  and  _158
REMARK   72  A    between atoms: _161  and  _163
REMARK   73  A    between atoms: _163  and  _164
REMARK   74  A    between atoms: _163  and  _166
REMARK   75  A    between atoms: _169  and  _171
REMARK   76  A    between atoms: _171  and  _172
REMARK   77  A    between atoms: _171  and  _174
REMARK   78  A    between atoms: _174  and  _175
REMARK   79  A    between atoms: _178  and  _180
REMARK   80  A    between atoms: _180  and  _181
REMARK   81  A    between atoms: _180  and  _183
REMARK   82  A    between atoms: _183  and  _184
REMARK   83  A    between atoms: _187  and  _189
REMARK   84  A    between atoms: _189  and  _190
REMARK   85  A    between atoms: _192  and  _194
REMARK   86  A    between atoms: _194  and  _195
REMARK   87  A    between atoms: _194  and  _197
REMARK   88  A    between atoms: _197  and  _198
REMARK   89  A    between atoms: _201  and  _203
REMARK   90  A    between atoms: _203  and  _204
REMARK   91  A    between atoms: _206  and  _208
REMARK   92  A    between atoms: _208  and  _209
REMARK   93  A    between atoms: _208  and  _211
REMARK   94  A    between atoms: _211  and  _212
REMARK   95  A    between atoms: _212  and  _213
REMARK   96  A    between atoms: _215  and  _217
REMARK   97  A    between atoms: _217  and  _218
REMARK   98  A    between atoms: _217  and  _220
REMARK   99  A    between atoms: _220  and  _221
REMARK  100  A    between atoms: _224  and  _226
REMARK  101  A    between atoms: _226  and  _227
REMARK  102  A    between atoms: _226  and  _229
REMARK  103  A    between atoms: _229  and  _230
REMARK  104  A    between atoms: _230  and  _231
REMARK  105  A    between atoms: _231  and  _232
REMARK  106  A    between atoms: _232  and  _233
REMARK  107  A    between atoms: _237  and  _239
REMARK  108  A    between atoms: _239  and  _240
REMARK  109  A    between atoms: _243  and  _245
REMARK  110  A    between atoms: _245  and  _246
REMARK  111  A    between atoms: _245  and  _248
REMARK  112  A    between atoms: _248  and  _249
REMARK  113  A    between atoms: _252  and  _254
REMARK  114  A    between atoms: _254  and  _255
REMARK  115  A    between atoms: _254  and  _257
REMARK  116  A    between atoms: _257  and  _258
REMARK  117  A    between atoms: _261  and  _263
REMARK  118  A    between atoms: _263  and  _264
REMARK  119  A    between atoms: _263  and  _266
REMARK  120  A    between atoms: _266  and  _267
REMARK  121  A    between atoms: _270  and  _272
REMARK  122  A    between atoms: _272  and  _273
REMARK  123  A    between atoms: _272  and  _275
REMARK  124  A    between atoms: _275  and  _276
REMARK  125  A    between atoms: _281  and  _283
REMARK  126  A    between atoms: _283  and  _284
REMARK  127  A    between atoms: _283  and  _286
REMARK  128  A    between atoms: _286  and  _287
REMARK  129  A    between atoms: _292  and  _294
REMARK  130  A    between atoms: _294  and  _295
REMARK  131  A    between atoms: _294  and  _297
REMARK  132  A    between atoms: _297  and  _298
REMARK  133  A    between atoms: _301  and  _303
REMARK  134  A    between atoms: _303  and  _304
REMARK  135  A    between atoms: _306  and  _308
REMARK  136  A    between atoms: _308  and  _309
REMARK  137  A    between atoms: _308  and  _311
REMARK  138  A    between atoms: _311  and  _312
REMARK  139  A    between atoms: _315  and  _317
REMARK  140  A    between atoms: _317  and  _318
REMARK  141  A    between atoms: _317  and  _320
REMARK  142  A    between atoms: _320  and  _321
REMARK  143  A    between atoms: _324  and  _326
REMARK  144  A    between atoms: _326  and  _327
REMARK  145  A    between atoms: _330  and  _332
REMARK  146  A    between atoms: _332  and  _333
REMARK  147  A    between atoms: _332  and  _335
REMARK  148  A    between atoms: _335  and  _336
REMARK  149  A    between atoms: _336  and  _337
REMARK  150  A    between atoms: _337  and  _338
REMARK  151  A    between atoms: _338  and  _339
REMARK  152  A    between atoms: _343  and  _345
REMARK  153  A    between atoms: _345  and  _346
REMARK  154  A    between atoms: _348  and  _350
REMARK  155  A    between atoms: _350  and  _351
REMARK  156  A    between atoms: _350  and  _353
REMARK  157  A    between atoms: _353  and  _354
REMARK  158  A    between atoms: _357  and  _359
REMARK  159  A    between atoms: _359  and  _360
REMARK  160  A    between atoms: _362  and  _364
REMARK  161  A    between atoms: _364  and  _365
REMARK  162  A    between atoms: _364  and  _367
REMARK  163  A    between atoms: _367  and  _368
REMARK  164  A    between atoms: _374  and  _376
REMARK  165  A    between atoms: _376  and  _377
REMARK  166  A    between atoms: _379  and  _381
REMARK  167  A    between atoms: _381  and  _382
REMARK  168  A    between atoms: _381  and  _384
REMARK  169  A    between atoms: _387  and  _389
REMARK  170  A    between atoms: _389  and  _390
REMARK  171  A    between atoms: _392  and  _394
REMARK  172  A    between atoms: _394  and  _395
REMARK  173  A    between atoms: _394  and  _397
REMARK  174  A    between atoms: _397  and  _398
REMARK  175  A    between atoms: _404  and  _406
REMARK  176  A    between atoms: _406  and  _407
REMARK  177  A    between atoms: _406  and  _409
REMARK  178  A    between atoms: _409  and  _410
REMARK  179  A    between atoms: _415  and  _416
REMARK  180  A    between atoms: _418  and  _420
REMARK  181  A    between atoms: _420  and  _421
REMARK  182  A    between atoms: _420  and  _423
REMARK  183  A    between atoms: _423  and  _424
REMARK  184  A    between atoms: _429  and  _430
REMARK  185  A    between atoms: _432  and  _434
REMARK  186  A    between atoms: _434  and  _435
REMARK  187  A    between atoms: _434  and  _437
REMARK  188  A    between atoms: _440  and  _442
REMARK  189  A    between atoms: _442  and  _443
REMARK  190  A    between atoms: _442  and  _445
REMARK  191  A    between atoms: _445  and  _446
REMARK  192  A    between atoms: _449  and  _451
REMARK  193  A    between atoms: _451  and  _452
REMARK  194  A    between atoms: _451  and  _454
REMARK  195  A    between atoms: _457  and  _459
REMARK  196  A    between atoms: _459  and  _460
REMARK  197  A    between atoms: _459  and  _462
REMARK  198  A    between atoms: _462  and  _463
REMARK  199  A    between atoms: _466  and  _468
REMARK  200  A    between atoms: _468  and  _469
REMARK  201  A    between atoms: _468  and  _471
REMARK  202  A    between atoms: _471  and  _472
REMARK  203  A    between atoms: _475  and  _477
REMARK  204  A    between atoms: _477  and  _478
REMARK  205  A    between atoms: _477  and  _480
REMARK  206  A    between atoms: _480  and  _481
REMARK  207  A    between atoms: _481  and  _482
REMARK  208  A    between atoms: _482  and  _483
REMARK  209  A    between atoms: _483  and  _484
REMARK  210  A    between atoms: _488  and  _490
REMARK  211  A    between atoms: _490  and  _491
REMARK  212  A    between atoms: _490  and  _493
REMARK  213  A    between atoms: _493  and  _494
REMARK  214  A    between atoms: _504  and  _506
REMARK  215  A    between atoms: _506  and  _507
REMARK  216  A    between atoms: _506  and  _509
REMARK  217  A    between atoms: _509  and  _510
REMARK  218  A    between atoms: _510  and  _511
REMARK  219  A    between atoms: _514  and  _516
REMARK  220  A    between atoms: _516  and  _517
REMARK  221  A    between atoms: _516  and  _519
REMARK  222  A    between atoms: _519  and  _520
REMARK  223  A    between atoms: _522  and  _524
REMARK  224  A    between atoms: _524  and  _525
REMARK  225  A    between atoms: _524  and  _527
REMARK  226  A    between atoms: _527  and  _528
REMARK  227  A    between atoms: _534  and  _536
REMARK  228  A    between atoms: _536  and  _537
REMARK  229  A    between atoms: _536  and  _539
REMARK  230  A    between atoms: _539  and  _540
REMARK  231  A    between atoms: _543  and  _545
REMARK  232  A    between atoms: _545  and  _546
REMARK  233  A    between atoms: _545  and  _548
REMARK  234  A    between atoms: _551  and  _553
REMARK  235  A    between atoms: _553  and  _554
REMARK  236  A    between atoms: _556  and  _558
REMARK  237  A    between atoms: _558  and  _559
REMARK  238  A    between atoms: _558  and  _561
REMARK  239  A    between atoms: _561  and  _562
REMARK  240  A    between atoms: _565  and  _567
REMARK  241  A    between atoms: _567  and  _568
REMARK  242  A    between atoms: _567  and  _570
REMARK  243  A    between atoms: _570  and  _571
REMARK  244  A    between atoms: _571  and  _572
REMARK  245  A    between atoms: _572  and  _573
REMARK  246  A    between atoms: _573  and  _574
REMARK  247  A    between atoms: _578  and  _580
REMARK  248  A    between atoms: _580  and  _581
REMARK  249  A    between atoms: _580  and  _583
REMARK                            x       y       z     vdW  Elec       q    Type
REMARK                         _______ _______ _______ _____ _____    ______ ____
ROOT
ATOM      1  O   HOH     1      10.260 -12.034 -28.987  0.00  0.00    +0.000 OA
ENDROOT
TORSDOF 0
REMARK  Name = ../refined-set-2016/4o07/4o07_pocket.pdb
REMARK  249 active torsions:
REMARK  status: ('A' for Active; 'I' for Inactive)
REMARK    1  A    between atoms: _1  and  _3
REMARK    2  A    between atoms: _3  and  _4
REMARK    3  A    between atoms: _3  and  _6
REMARK    4  A    between atoms: _6  and  _7
REMARK    5  A    between atoms: _13  and  _15
REMARK    6  A    between atoms: _15  and  _16
REMARK    7  A    between atoms: _15  and  _18
REMARK    8  A    between atoms: _18  and  _19
REMARK    9  A    between atoms: _19  and  _20
REMARK   10  A    between atoms: _25  and  _27
REMARK   11  A    between atoms: _27  and  _28
REMARK   12  A    between atoms: _27  and  _30
REMARK   13  A    between atoms: _30  and  _31
REMARK   14  A    between atoms: _34  and  _36
REMARK   15  A    between atoms: _36  and  _37
REMARK   16  A    between atoms: _36  and  _39
REMARK   17  A    between atoms: _39  and  _40
REMARK   18  A    between atoms: _40  and  _41
REMARK   19  A    between atoms: _44  and  _46
REMARK   20  A    between atoms: _46  and  _47
REMARK   21  A    between atoms: _46  and  _49
REMARK   22  A    between atoms: _49  and  _50
REMARK   23  A    between atoms: _53  and  _55
REMARK   24  A    between atoms: _55  and  _56
REMARK   25  A    between atoms: _55  and  _58
REMARK   26  A    between atoms: _58  and  _59
REMARK   27  A    between atoms: _62  and  _64
REMARK   28  A    between atoms: _64  and  _65
REMARK   29  A    between atoms: _64  and  _67
REMARK   30  A    between atoms: _67  and  _68
REMARK   31  A    between atoms: _70  and  _72
REMARK   32  A    between atoms: _72  and  _73
REMARK   33  A    between atoms: _72  and  _75
REMARK   34  A    between atoms: _75  and  _76
REMARK   35  A    between atoms: _81  and  _83
REMARK   36  A    between atoms: _83  and  _84
REMARK   37  A    between atoms: _83  and  _86
REMARK   38  A    between atoms: _86  and  _87
REMARK   39  A    between atoms: _89  and  _91
REMARK   40  A    between atoms: _91  and  _92
REMARK   41  A    between atoms: _91  and  _94
REMARK   42  A    between atoms: _94  and  _95
REMARK   43  A    between atoms: _97  and  _99
REMARK   44  A    between atoms: _99  and  _100
REMARK   45  A    between atoms: _99  and  _102
REMARK   46  A    between atoms: _102  and  _103
REMARK   47  A    between atoms: _106  and  _108
REMARK   48  A    between atoms: _108  and  _109
REMARK   49  A    between atoms: _112  and  _114
REMARK   50  A    between atoms: _114  and  _115
REMARK   51  A    between atoms: _114  and  _117
REMARK   52  A    between atoms: _117  and  _118
REMARK   53  A    between atoms: _121  and  _123
REMARK   54  A    between atoms: _123  and  _124
REMARK   55  A    between atoms: _123  and  _126
REMARK   56  A    between atoms: _126  and  _127
REMARK   57  A    between atoms: _130  and  _132
REMARK   58  A    between atoms: _132  and  _133
REMARK   59  A    between atoms: _132  and  _135
REMARK   60  A    between atoms: _135  and  _136
REMARK   61  A    between atoms: _136  and  _137
REMARK   62  A    between atoms: _137  and  _138
REMARK   63  A    between atoms: _138  and  _139
REMARK   64  A    between atoms: _143  and  _145
REMARK   65  A    between atoms: _145  and  _146
REMARK   66  A    between atoms: _145  and  _148
REMARK   67  A    between atoms: _148  and  _149
REMARK   68  A    between atoms: _152  and  _154
REMARK   69  A    between atoms: _154  and  _155
REMARK   70  A    between atoms: _154  and  _157
REMARK   71  A    between atoms: _157  and  _158
REMARK   72  A    between atoms: _161  and  _163
REMARK   73  A    between atoms: _163  and  _164
REMARK   74  A    between atoms: _163  and  _166
REMARK   75  A    between atoms: _169  and  _171
REMARK   76  A    between atoms: _171  and  _172
REMARK   77  A    between atoms: _171  and  _174
REMARK   78  A    between atoms: _174  and  _175
REMARK   79  A    between atoms: _178  and  _180
REMARK   80  A    between atoms: _180  and  _181
REMARK   81  A    between atoms: _180  and  _183
REMARK   82  A    between atoms: _183  and  _184
REMARK   83  A    between atoms: _187  and  _189
REMARK   84  A    between atoms: _189  and  _190
REMARK   85  A    between atoms: _192  and  _194
REMARK   86  A    between atoms: _194  and  _195
REMARK   87  A    between atoms: _194  and  _197
REMARK   88  A    between atoms: _197  and  _198
REMARK   89  A    between atoms: _201  and  _203
REMARK   90  A    between atoms: _203  and  _204
REMARK   91  A    between atoms: _206  and  _208
REMARK   92  A    between atoms: _208  and  _209
REMARK   93  A    between atoms: _208  and  _211
REMARK   94  A    between atoms: _211  and  _212
REMARK   95  A    between atoms: _212  and  _213
REMARK   96  A    between atoms: _215  and  _217
REMARK   97  A    between atoms: _217  and  _218
REMARK   98  A    between atoms: _217  and  _220
REMARK   99  A    between atoms: _220  and  _221
REMARK  100  A    between atoms: _224  and  _226
REMARK  101  A    between atoms: _226  and  _227
REMARK  102  A    between atoms: _226  and  _229
REMARK  103  A    between atoms: _229  and  _230
REMARK  104  A    between atoms: _230  and  _231
REMARK  105  A    between atoms: _231  and  _232
REMARK  106  A    between atoms: _232  and  _233
REMARK  107  A    between atoms: _237  and  _239
REMARK  108  A    between atoms: _239  and  _240
REMARK  109  A    between atoms: _243  and  _245
REMARK  110  A    between atoms: _245  and  _246
REMARK  111  A    between atoms: _245  and  _248
REMARK  112  A    between atoms: _248  and  _249
REMARK  113  A    between atoms: _252  and  _254
REMARK  114  A    between atoms: _254  and  _255
REMARK  115  A    between atoms: _254  and  _257
REMARK  116  A    between atoms: _257  and  _258
REMARK  117  A    between atoms: _261  and  _263
REMARK  118  A    between atoms: _263  and  _264
REMARK  119  A    between atoms: _263  and  _266
REMARK  120  A    between atoms: _266  and  _267
REMARK  121  A    between atoms: _270  and  _272
REMARK  122  A    between atoms: _272  and  _273
REMARK  123  A    between atoms: _272  and  _275
REMARK  124  A    between atoms: _275  and  _276
REMARK  125  A    between atoms: _281  and  _283
REMARK  126  A    between atoms: _283  and  _284
REMARK  127  A    between atoms: _283  and  _286
REMARK  128  A    between atoms: _286  and  _287
REMARK  129  A    between atoms: _292  and  _294
REMARK  130  A    between atoms: _294  and  _295
REMARK  131  A    between atoms: _294  and  _297
REMARK  132  A    between atoms: _297  and  _298
REMARK  133  A    between atoms: _301  and  _303
REMARK  134  A    between atoms: _303  and  _304
REMARK  135  A    between atoms: _306  and  _308
REMARK  136  A    between atoms: _308  and  _309
REMARK  137  A    between atoms: _308  and  _311
REMARK  138  A    between atoms: _311  and  _312
REMARK  139  A    between atoms: _315  and  _317
REMARK  140  A    between atoms: _317  and  _318
REMARK  141  A    between atoms: _317  and  _320
REMARK  142  A    between atoms: _320  and  _321
REMARK  143  A    between atoms: _324  and  _326
REMARK  144  A    between atoms: _326  and  _327
REMARK  145  A    between atoms: _330  and  _332
REMARK  146  A    between atoms: _332  and  _333
REMARK  147  A    between atoms: _332  and  _335
REMARK  148  A    between atoms: _335  and  _336
REMARK  149  A    between atoms: _336  and  _337
REMARK  150  A    between atoms: _337  and  _338
REMARK  151  A    between atoms: _338  and  _339
REMARK  152  A    between atoms: _343  and  _345
REMARK  153  A    between atoms: _345  and  _346
REMARK  154  A    between atoms: _348  and  _350
REMARK  155  A    between atoms: _350  and  _351
REMARK  156  A    between atoms: _350  and  _353
REMARK  157  A    between atoms: _353  and  _354
REMARK  158  A    between atoms: _357  and  _359
REMARK  159  A    between atoms: _359  and  _360
REMARK  160  A    between atoms: _362  and  _364
REMARK  161  A    between atoms: _364  and  _365
REMARK  162  A    between atoms: _364  and  _367
REMARK  163  A    between atoms: _367  and  _368
REMARK  164  A    between atoms: _374  and  _376
REMARK  165  A    between atoms: _376  and  _377
REMARK  166  A    between atoms: _379  and  _381
REMARK  167  A    between atoms: _381  and  _382
REMARK  168  A    between atoms: _381  and  _384
REMARK  169  A    between atoms: _387  and  _389
REMARK  170  A    between atoms: _389  and  _390
REMARK  171  A    between atoms: _392  and  _394
REMARK  172  A    between atoms: _394  and  _395
REMARK  173  A    between atoms: _394  and  _397
REMARK  174  A    between atoms: _397  and  _398
REMARK  175  A    between atoms: _404  and  _406
REMARK  176  A    between atoms: _406  and  _407
REMARK  177  A    between atoms: _406  and  _409
REMARK  178  A    between atoms: _409  and  _410
REMARK  179  A    between atoms: _415  and  _416
REMARK  180  A    between atoms: _418  and  _420
REMARK  181  A    between atoms: _420  and  _421
REMARK  182  A    between atoms: _420  and  _423
REMARK  183  A    between atoms: _423  and  _424
REMARK  184  A    between atoms: _429  and  _430
REMARK  185  A    between atoms: _432  and  _434
REMARK  186  A    between atoms: _434  and  _435
REMARK  187  A    between atoms: _434  and  _437
REMARK  188  A    between atoms: _440  and  _442
REMARK  189  A    between atoms: _442  and  _443
REMARK  190  A    between atoms: _442  and  _445
REMARK  191  A    between atoms: _445  and  _446
REMARK  192  A    between atoms: _449  and  _451
REMARK  193  A    between atoms: _451  and  _452
REMARK  194  A    between atoms: _451  and  _454
REMARK  195  A    between atoms: _457  and  _459
REMARK  196  A    between atoms: _459  and  _460
REMARK  197  A    between atoms: _459  and  _462
REMARK  198  A    between atoms: _462  and  _463
REMARK  199  A    between atoms: _466  and  _468
REMARK  200  A    between atoms: _468  and  _469
REMARK  201  A    between atoms: _468  and  _471
REMARK  202  A    between atoms: _471  and  _472
REMARK  203  A    between atoms: _475  and  _477
REMARK  204  A    between atoms: _477  and  _478
REMARK  205  A    between atoms: _477  and  _480
REMARK  206  A    between atoms: _480  and  _481
REMARK  207  A    between atoms: _481  and  _482
REMARK  208  A    between atoms: _482  and  _483
REMARK  209  A    between atoms: _483  and  _484
REMARK  210  A    between atoms: _488  and  _490
REMARK  211  A    between atoms: _490  and  _491
REMARK  212  A    between atoms: _490  and  _493
REMARK  213  A    between atoms: _493  and  _494
REMARK  214  A    between atoms: _504  and  _506
REMARK  215  A    between atoms: _506  and  _507
REMARK  216  A    between atoms: _506  and  _509
REMARK  217  A    between atoms: _509  and  _510
REMARK  218  A    between atoms: _510  and  _511
REMARK  219  A    between atoms: _514  and  _516
REMARK  220  A    between atoms: _516  and  _517
REMARK  221  A    between atoms: _516  and  _519
REMARK  222  A    between atoms: _519  and  _520
REMARK  223  A    between atoms: _522  and  _524
REMARK  224  A    between atoms: _524  and  _525
REMARK  225  A    between atoms: _524  and  _527
REMARK  226  A    between atoms: _527  and  _528
REMARK  227  A    between atoms: _534  and  _536
REMARK  228  A    between atoms: _536  and  _537
REMARK  229  A    between atoms: _536  and  _539
REMARK  230  A    between atoms: _539  and  _540
REMARK  231  A    between atoms: _543  and  _545
REMARK  232  A    between atoms: _545  and  _546
REMARK  233  A    between atoms: _545  and  _548
REMARK  234  A    between atoms: _551  and  _553
REMARK  235  A    between atoms: _553  and  _554
REMARK  236  A    between atoms: _556  and  _558
REMARK  237  A    between atoms: _558  and  _559
REMARK  238  A    between atoms: _558  and  _561
REMARK  239  A    between atoms: _561  and  _562
REMARK  240  A    between atoms: _565  and  _567
REMARK  241  A    between atoms: _567  and  _568
REMARK  242  A    between atoms: _567  and  _570
REMARK  243  A    between atoms: _570  and  _571
REMARK  244  A    between atoms: _571  and  _572
REMARK  245  A    between atoms: _572  and  _573
REMARK  246  A    between atoms: _573  and  _574
REMARK  247  A    between atoms: _578  and  _580
REMARK  248  A    between atoms: _580  and  _581
REMARK  249  A    between atoms: _580  and  _583
REMARK                            x       y       z     vdW  Elec       q    Type
REMARK                         _______ _______ _______ _____ _____    ______ ____
ROOT
ATOM      1  O   HOH     1       8.756  -4.726 -21.915  0.00  0.00    +0.000 OA
ENDROOT
TORSDOF 0
REMARK  Name = ../refined-set-2016/4o07/4o07_pocket.pdb
REMARK  249 active torsions:
REMARK  status: ('A' for Active; 'I' for Inactive)
REMARK    1  A    between atoms: _1  and  _3
REMARK    2  A    between atoms: _3  and  _4
REMARK    3  A    between atoms: _3  and  _6
REMARK    4  A    between atoms: _6  and  _7
REMARK    5  A    between atoms: _13  and  _15
REMARK    6  A    between atoms: _15  and  _16
REMARK    7  A    between atoms: _15  and  _18
REMARK    8  A    between atoms: _18  and  _19
REMARK    9  A    between atoms: _19  and  _20
REMARK   10  A    between atoms: _25  and  _27
REMARK   11  A    between atoms: _27  and  _28
REMARK   12  A    between atoms: _27  and  _30
REMARK   13  A    between atoms: _30  and  _31
REMARK   14  A    between atoms: _34  and  _36
REMARK   15  A    between atoms: _36  and  _37
REMARK   16  A    between atoms: _36  and  _39
REMARK   17  A    between atoms: _39  and  _40
REMARK   18  A    between atoms: _40  and  _41
REMARK   19  A    between atoms: _44  and  _46
REMARK   20  A    between atoms: _46  and  _47
REMARK   21  A    between atoms: _46  and  _49
REMARK   22  A    between atoms: _49  and  _50
REMARK   23  A    between atoms: _53  and  _55
REMARK   24  A    between atoms: _55  and  _56
REMARK   25  A    between atoms: _55  and  _58
REMARK   26  A    between atoms: _58  and  _59
REMARK   27  A    between atoms: _62  and  _64
REMARK   28  A    between atoms: _64  and  _65
REMARK   29  A    between atoms: _64  and  _67
REMARK   30  A    between atoms: _67  and  _68
REMARK   31  A    between atoms: _70  and  _72
REMARK   32  A    between atoms: _72  and  _73
REMARK   33  A    between atoms: _72  and  _75
REMARK   34  A    between atoms: _75  and  _76
REMARK   35  A    between atoms: _81  and  _83
REMARK   36  A    between atoms: _83  and  _84
REMARK   37  A    between atoms: _83  and  _86
REMARK   38  A    between atoms: _86  and  _87
REMARK   39  A    between atoms: _89  and  _91
REMARK   40  A    between atoms: _91  and  _92
REMARK   41  A    between atoms: _91  and  _94
REMARK   42  A    between atoms: _94  and  _95
REMARK   43  A    between atoms: _97  and  _99
REMARK   44  A    between atoms: _99  and  _100
REMARK   45  A    between atoms: _99  and  _102
REMARK   46  A    between atoms: _102  and  _103
REMARK   47  A    between atoms: _106  and  _108
REMARK   48  A    between atoms: _108  and  _109
REMARK   49  A    between atoms: _112  and  _114
REMARK   50  A    between atoms: _114  and  _115
REMARK   51  A    between atoms: _114  and  _117
REMARK   52  A    between atoms: _117  and  _118
REMARK   53  A    between atoms: _121  and  _123
REMARK   54  A    between atoms: _123  and  _124
REMARK   55  A    between atoms: _123  and  _126
REMARK   56  A    between atoms: _126  and  _127
REMARK   57  A    between atoms: _130  and  _132
REMARK   58  A    between atoms: _132  and  _133
REMARK   59  A    between atoms: _132  and  _135
REMARK   60  A    between atoms: _135  and  _136
REMARK   61  A    between atoms: _136  and  _137
REMARK   62  A    between atoms: _137  and  _138
REMARK   63  A    between atoms: _138  and  _139
REMARK   64  A    between atoms: _143  and  _145
REMARK   65  A    between atoms: _145  and  _146
REMARK   66  A    between atoms: _145  and  _148
REMARK   67  A    between atoms: _148  and  _149
REMARK   68  A    between atoms: _152  and  _154
REMARK   69  A    between atoms: _154  and  _155
REMARK   70  A    between atoms: _154  and  _157
REMARK   71  A    between atoms: _157  and  _158
REMARK   72  A    between atoms: _161  and  _163
REMARK   73  A    between atoms: _163  and  _164
REMARK   74  A    between atoms: _163  and  _166
REMARK   75  A    between atoms: _169  and  _171
REMARK   76  A    between atoms: _171  and  _172
REMARK   77  A    between atoms: _171  and  _174
REMARK   78  A    between atoms: _174  and  _175
REMARK   79  A    between atoms: _178  and  _180
REMARK   80  A    between atoms: _180  and  _181
REMARK   81  A    between atoms: _180  and  _183
REMARK   82  A    between atoms: _183  and  _184
REMARK   83  A    between atoms: _187  and  _189
REMARK   84  A    between atoms: _189  and  _190
REMARK   85  A    between atoms: _192  and  _194
REMARK   86  A    between atoms: _194  and  _195
REMARK   87  A    between atoms: _194  and  _197
REMARK   88  A    between atoms: _197  and  _198
REMARK   89  A    between atoms: _201  and  _203
REMARK   90  A    between atoms: _203  and  _204
REMARK   91  A    between atoms: _206  and  _208
REMARK   92  A    between atoms: _208  and  _209
REMARK   93  A    between atoms: _208  and  _211
REMARK   94  A    between atoms: _211  and  _212
REMARK   95  A    between atoms: _212  and  _213
REMARK   96  A    between atoms: _215  and  _217
REMARK   97  A    between atoms: _217  and  _218
REMARK   98  A    between atoms: _217  and  _220
REMARK   99  A    between atoms: _220  and  _221
REMARK  100  A    between atoms: _224  and  _226
REMARK  101  A    between atoms: _226  and  _227
REMARK  102  A    between atoms: _226  and  _229
REMARK  103  A    between atoms: _229  and  _230
REMARK  104  A    between atoms: _230  and  _231
REMARK  105  A    between atoms: _231  and  _232
REMARK  106  A    between atoms: _232  and  _233
REMARK  107  A    between atoms: _237  and  _239
REMARK  108  A    between atoms: _239  and  _240
REMARK  109  A    between atoms: _243  and  _245
REMARK  110  A    between atoms: _245  and  _246
REMARK  111  A    between atoms: _245  and  _248
REMARK  112  A    between atoms: _248  and  _249
REMARK  113  A    between atoms: _252  and  _254
REMARK  114  A    between atoms: _254  and  _255
REMARK  115  A    between atoms: _254  and  _257
REMARK  116  A    between atoms: _257  and  _258
REMARK  117  A    between atoms: _261  and  _263
REMARK  118  A    between atoms: _263  and  _264
REMARK  119  A    between atoms: _263  and  _266
REMARK  120  A    between atoms: _266  and  _267
REMARK  121  A    between atoms: _270  and  _272
REMARK  122  A    between atoms: _272  and  _273
REMARK  123  A    between atoms: _272  and  _275
REMARK  124  A    between atoms: _275  and  _276
REMARK  125  A    between atoms: _281  and  _283
REMARK  126  A    between atoms: _283  and  _284
REMARK  127  A    between atoms: _283  and  _286
REMARK  128  A    between atoms: _286  and  _287
REMARK  129  A    between atoms: _292  and  _294
REMARK  130  A    between atoms: _294  and  _295
REMARK  131  A    between atoms: _294  and  _297
REMARK  132  A    between atoms: _297  and  _298
REMARK  133  A    between atoms: _301  and  _303
REMARK  134  A    between atoms: _303  and  _304
REMARK  135  A    between atoms: _306  and  _308
REMARK  136  A    between atoms: _308  and  _309
REMARK  137  A    between atoms: _308  and  _311
REMARK  138  A    between atoms: _311  and  _312
REMARK  139  A    between atoms: _315  and  _317
REMARK  140  A    between atoms: _317  and  _318
REMARK  141  A    between atoms: _317  and  _320
REMARK  142  A    between atoms: _320  and  _321
REMARK  143  A    between atoms: _324  and  _326
REMARK  144  A    between atoms: _326  and  _327
REMARK  145  A    between atoms: _330  and  _332
REMARK  146  A    between atoms: _332  and  _333
REMARK  147  A    between atoms: _332  and  _335
REMARK  148  A    between atoms: _335  and  _336
REMARK  149  A    between atoms: _336  and  _337
REMARK  150  A    between atoms: _337  and  _338
REMARK  151  A    between atoms: _338  and  _339
REMARK  152  A    between atoms: _343  and  _345
REMARK  153  A    between atoms: _345  and  _346
REMARK  154  A    between atoms: _348  and  _350
REMARK  155  A    between atoms: _350  and  _351
REMARK  156  A    between atoms: _350  and  _353
REMARK  157  A    between atoms: _353  and  _354
REMARK  158  A    between atoms: _357  and  _359
REMARK  159  A    between atoms: _359  and  _360
REMARK  160  A    between atoms: _362  and  _364
REMARK  161  A    between atoms: _364  and  _365
REMARK  162  A    between atoms: _364  and  _367
REMARK  163  A    between atoms: _367  and  _368
REMARK  164  A    between atoms: _374  and  _376
REMARK  165  A    between atoms: _376  and  _377
REMARK  166  A    between atoms: _379  and  _381
REMARK  167  A    between atoms: _381  and  _382
REMARK  168  A    between atoms: _381  and  _384
REMARK  169  A    between atoms: _387  and  _389
REMARK  170  A    between atoms: _389  and  _390
REMARK  171  A    between atoms: _392  and  _394
REMARK  172  A    between atoms: _394  and  _395
REMARK  173  A    between atoms: _394  and  _397
REMARK  174  A    between atoms: _397  and  _398
REMARK  175  A    between atoms: _404  and  _406
REMARK  176  A    between atoms: _406  and  _407
REMARK  177  A    between atoms: _406  and  _409
REMARK  178  A    between atoms: _409  and  _410
REMARK  179  A    between atoms: _415  and  _416
REMARK  180  A    between atoms: _418  and  _420
REMARK  181  A    between atoms: _420  and  _421
REMARK  182  A    between atoms: _420  and  _423
REMARK  183  A    between atoms: _423  and  _424
REMARK  184  A    between atoms: _429  and  _430
REMARK  185  A    between atoms: _432  and  _434
REMARK  186  A    between atoms: _434  and  _435
REMARK  187  A    between atoms: _434  and  _437
REMARK  188  A    between atoms: _440  and  _442
REMARK  189  A    between atoms: _442  and  _443
REMARK  190  A    between atoms: _442  and  _445
REMARK  191  A    between atoms: _445  and  _446
REMARK  192  A    between atoms: _449  and  _451
REMARK  193  A    between atoms: _451  and  _452
REMARK  194  A    between atoms: _451  and  _454
REMARK  195  A    between atoms: _457  and  _459
REMARK  196  A    between atoms: _459  and  _460
REMARK  197  A    between atoms: _459  and  _462
REMARK  198  A    between atoms: _462  and  _463
REMARK  199  A    between atoms: _466  and  _468
REMARK  200  A    between atoms: _468  and  _469
REMARK  201  A    between atoms: _468  and  _471
REMARK  202  A    between atoms: _471  and  _472
REMARK  203  A    between atoms: _475  and  _477
REMARK  204  A    between atoms: _477  and  _478
REMARK  205  A    between atoms: _477  and  _480
REMARK  206  A    between atoms: _480  and  _481
REMARK  207  A    between atoms: _481  and  _482
REMARK  208  A    between atoms: _482  and  _483
REMARK  209  A    between atoms: _483  and  _484
REMARK  210  A    between atoms: _488  and  _490
REMARK  211  A    between atoms: _490  and  _491
REMARK  212  A    between atoms: _490  and  _493
REMARK  213  A    between atoms: _493  and  _494
REMARK  214  A    between atoms: _504  and  _506
REMARK  215  A    between atoms: _506  and  _507
REMARK  216  A    between atoms: _506  and  _509
REMARK  217  A    between atoms: _509  and  _510
REMARK  218  A    between atoms: _510  and  _511
REMARK  219  A    between atoms: _514  and  _516
REMARK  220  A    between atoms: _516  and  _517
REMARK  221  A    between atoms: _516  and  _519
REMARK  222  A    between atoms: _519  and  _520
REMARK  223  A    between atoms: _522  and  _524
REMARK  224  A    between atoms: _524  and  _525
REMARK  225  A    between atoms: _524  and  _527
REMARK  226  A    between atoms: _527  and  _528
REMARK  227  A    between atoms: _534  and  _536
REMARK  228  A    between atoms: _536  and  _537
REMARK  229  A    between atoms: _536  and  _539
REMARK  230  A    between atoms: _539  and  _540
REMARK  231  A    between atoms: _543  and  _545
REMARK  232  A    between atoms: _545  and  _546
REMARK  233  A    between atoms: _545  and  _548
REMARK  234  A    between atoms: _551  and  _553
REMARK  235  A    between atoms: _553  and  _554
REMARK  236  A    between atoms: _556  and  _558
REMARK  237  A    between atoms: _558  and  _559
REMARK  238  A    between atoms: _558  and  _561
REMARK  239  A    between atoms: _561  and  _562
REMARK  240  A    between atoms: _565  and  _567
REMARK  241  A    between atoms: _567  and  _568
REMARK  242  A    between atoms: _567  and  _570
REMARK  243  A    between atoms: _570  and  _571
REMARK  244  A    between atoms: _571  and  _572
REMARK  245  A    between atoms: _572  and  _573
REMARK  246  A    between atoms: _573  and  _574
REMARK  247  A    between atoms: _578  and  _580
REMARK  248  A    between atoms: _580  and  _581
REMARK  249  A    between atoms: _580  and  _583
REMARK                            x       y       z     vdW  Elec       q    Type
REMARK                         _______ _______ _______ _____ _____    ______ ____
ROOT
ATOM      1  O   HOH     1      10.119 -15.346 -27.112  0.00  0.00    +0.000 OA
ENDROOT
TORSDOF 0
REMARK  Name = ../refined-set-2016/4o07/4o07_pocket.pdb
REMARK  249 active torsions:
REMARK  status: ('A' for Active; 'I' for Inactive)
REMARK    1  A    between atoms: _1  and  _3
REMARK    2  A    between atoms: _3  and  _4
REMARK    3  A    between atoms: _3  and  _6
REMARK    4  A    between atoms: _6  and  _7
REMARK    5  A    between atoms: _13  and  _15
REMARK    6  A    between atoms: _15  and  _16
REMARK    7  A    between atoms: _15  and  _18
REMARK    8  A    between atoms: _18  and  _19
REMARK    9  A    between atoms: _19  and  _20
REMARK   10  A    between atoms: _25  and  _27
REMARK   11  A    between atoms: _27  and  _28
REMARK   12  A    between atoms: _27  and  _30
REMARK   13  A    between atoms: _30  and  _31
REMARK   14  A    between atoms: _34  and  _36
REMARK   15  A    between atoms: _36  and  _37
REMARK   16  A    between atoms: _36  and  _39
REMARK   17  A    between atoms: _39  and  _40
REMARK   18  A    between atoms: _40  and  _41
REMARK   19  A    between atoms: _44  and  _46
REMARK   20  A    between atoms: _46  and  _47
REMARK   21  A    between atoms: _46  and  _49
REMARK   22  A    between atoms: _49  and  _50
REMARK   23  A    between atoms: _53  and  _55
REMARK   24  A    between atoms: _55  and  _56
REMARK   25  A    between atoms: _55  and  _58
REMARK   26  A    between atoms: _58  and  _59
REMARK   27  A    between atoms: _62  and  _64
REMARK   28  A    between atoms: _64  and  _65
REMARK   29  A    between atoms: _64  and  _67
REMARK   30  A    between atoms: _67  and  _68
REMARK   31  A    between atoms: _70  and  _72
REMARK   32  A    between atoms: _72  and  _73
REMARK   33  A    between atoms: _72  and  _75
REMARK   34  A    between atoms: _75  and  _76
REMARK   35  A    between atoms: _81  and  _83
REMARK   36  A    between atoms: _83  and  _84
REMARK   37  A    between atoms: _83  and  _86
REMARK   38  A    between atoms: _86  and  _87
REMARK   39  A    between atoms: _89  and  _91
REMARK   40  A    between atoms: _91  and  _92
REMARK   41  A    between atoms: _91  and  _94
REMARK   42  A    between atoms: _94  and  _95
REMARK   43  A    between atoms: _97  and  _99
REMARK   44  A    between atoms: _99  and  _100
REMARK   45  A    between atoms: _99  and  _102
REMARK   46  A    between atoms: _102  and  _103
REMARK   47  A    between atoms: _106  and  _108
REMARK   48  A    between atoms: _108  and  _109
REMARK   49  A    between atoms: _112  and  _114
REMARK   50  A    between atoms: _114  and  _115
REMARK   51  A    between atoms: _114  and  _117
REMARK   52  A    between atoms: _117  and  _118
REMARK   53  A    between atoms: _121  and  _123
REMARK   54  A    between atoms: _123  and  _124
REMARK   55  A    between atoms: _123  and  _126
REMARK   56  A    between atoms: _126  and  _127
REMARK   57  A    between atoms: _130  and  _132
REMARK   58  A    between atoms: _132  and  _133
REMARK   59  A    between atoms: _132  and  _135
REMARK   60  A    between atoms: _135  and  _136
REMARK   61  A    between atoms: _136  and  _137
REMARK   62  A    between atoms: _137  and  _138
REMARK   63  A    between atoms: _138  and  _139
REMARK   64  A    between atoms: _143  and  _145
REMARK   65  A    between atoms: _145  and  _146
REMARK   66  A    between atoms: _145  and  _148
REMARK   67  A    between atoms: _148  and  _149
REMARK   68  A    between atoms: _152  and  _154
REMARK   69  A    between atoms: _154  and  _155
REMARK   70  A    between atoms: _154  and  _157
REMARK   71  A    between atoms: _157  and  _158
REMARK   72  A    between atoms: _161  and  _163
REMARK   73  A    between atoms: _163  and  _164
REMARK   74  A    between atoms: _163  and  _166
REMARK   75  A    between atoms: _169  and  _171
REMARK   76  A    between atoms: _171  and  _172
REMARK   77  A    between atoms: _171  and  _174
REMARK   78  A    between atoms: _174  and  _175
REMARK   79  A    between atoms: _178  and  _180
REMARK   80  A    between atoms: _180  and  _181
REMARK   81  A    between atoms: _180  and  _183
REMARK   82  A    between atoms: _183  and  _184
REMARK   83  A    between atoms: _187  and  _189
REMARK   84  A    between atoms: _189  and  _190
REMARK   85  A    between atoms: _192  and  _194
REMARK   86  A    between atoms: _194  and  _195
REMARK   87  A    between atoms: _194  and  _197
REMARK   88  A    between atoms: _197  and  _198
REMARK   89  A    between atoms: _201  and  _203
REMARK   90  A    between atoms: _203  and  _204
REMARK   91  A    between atoms: _206  and  _208
REMARK   92  A    between atoms: _208  and  _209
REMARK   93  A    between atoms: _208  and  _211
REMARK   94  A    between atoms: _211  and  _212
REMARK   95  A    between atoms: _212  and  _213
REMARK   96  A    between atoms: _215  and  _217
REMARK   97  A    between atoms: _217  and  _218
REMARK   98  A    between atoms: _217  and  _220
REMARK   99  A    between atoms: _220  and  _221
REMARK  100  A    between atoms: _224  and  _226
REMARK  101  A    between atoms: _226  and  _227
REMARK  102  A    between atoms: _226  and  _229
REMARK  103  A    between atoms: _229  and  _230
REMARK  104  A    between atoms: _230  and  _231
REMARK  105  A    between atoms: _231  and  _232
REMARK  106  A    between atoms: _232  and  _233
REMARK  107  A    between atoms: _237  and  _239
REMARK  108  A    between atoms: _239  and  _240
REMARK  109  A    between atoms: _243  and  _245
REMARK  110  A    between atoms: _245  and  _246
REMARK  111  A    between atoms: _245  and  _248
REMARK  112  A    between atoms: _248  and  _249
REMARK  113  A    between atoms: _252  and  _254
REMARK  114  A    between atoms: _254  and  _255
REMARK  115  A    between atoms: _254  and  _257
REMARK  116  A    between atoms: _257  and  _258
REMARK  117  A    between atoms: _261  and  _263
REMARK  118  A    between atoms: _263  and  _264
REMARK  119  A    between atoms: _263  and  _266
REMARK  120  A    between atoms: _266  and  _267
REMARK  121  A    between atoms: _270  and  _272
REMARK  122  A    between atoms: _272  and  _273
REMARK  123  A    between atoms: _272  and  _275
REMARK  124  A    between atoms: _275  and  _276
REMARK  125  A    between atoms: _281  and  _283
REMARK  126  A    between atoms: _283  and  _284
REMARK  127  A    between atoms: _283  and  _286
REMARK  128  A    between atoms: _286  and  _287
REMARK  129  A    between atoms: _292  and  _294
REMARK  130  A    between atoms: _294  and  _295
REMARK  131  A    between atoms: _294  and  _297
REMARK  132  A    between atoms: _297  and  _298
REMARK  133  A    between atoms: _301  and  _303
REMARK  134  A    between atoms: _303  and  _304
REMARK  135  A    between atoms: _306  and  _308
REMARK  136  A    between atoms: _308  and  _309
REMARK  137  A    between atoms: _308  and  _311
REMARK  138  A    between atoms: _311  and  _312
REMARK  139  A    between atoms: _315  and  _317
REMARK  140  A    between atoms: _317  and  _318
REMARK  141  A    between atoms: _317  and  _320
REMARK  142  A    between atoms: _320  and  _321
REMARK  143  A    between atoms: _324  and  _326
REMARK  144  A    between atoms: _326  and  _327
REMARK  145  A    between atoms: _330  and  _332
REMARK  146  A    between atoms: _332  and  _333
REMARK  147  A    between atoms: _332  and  _335
REMARK  148  A    between atoms: _335  and  _336
REMARK  149  A    between atoms: _336  and  _337
REMARK  150  A    between atoms: _337  and  _338
REMARK  151  A    between atoms: _338  and  _339
REMARK  152  A    between atoms: _343  and  _345
REMARK  153  A    between atoms: _345  and  _346
REMARK  154  A    between atoms: _348  and  _350
REMARK  155  A    between atoms: _350  and  _351
REMARK  156  A    between atoms: _350  and  _353
REMARK  157  A    between atoms: _353  and  _354
REMARK  158  A    between atoms: _357  and  _359
REMARK  159  A    between atoms: _359  and  _360
REMARK  160  A    between atoms: _362  and  _364
REMARK  161  A    between atoms: _364  and  _365
REMARK  162  A    between atoms: _364  and  _367
REMARK  163  A    between atoms: _367  and  _368
REMARK  164  A    between atoms: _374  and  _376
REMARK  165  A    between atoms: _376  and  _377
REMARK  166  A    between atoms: _379  and  _381
REMARK  167  A    between atoms: _381  and  _382
REMARK  168  A    between atoms: _381  and  _384
REMARK  169  A    between atoms: _387  and  _389
REMARK  170  A    between atoms: _389  and  _390
REMARK  171  A    between atoms: _392  and  _394
REMARK  172  A    between atoms: _394  and  _395
REMARK  173  A    between atoms: _394  and  _397
REMARK  174  A    between atoms: _397  and  _398
REMARK  175  A    between atoms: _404  and  _406
REMARK  176  A    between atoms: _406  and  _407
REMARK  177  A    between atoms: _406  and  _409
REMARK  178  A    between atoms: _409  and  _410
REMARK  179  A    between atoms: _415  and  _416
REMARK  180  A    between atoms: _418  and  _420
REMARK  181  A    between atoms: _420  and  _421
REMARK  182  A    between atoms: _420  and  _423
REMARK  183  A    between atoms: _423  and  _424
REMARK  184  A    between atoms: _429  and  _430
REMARK  185  A    between atoms: _432  and  _434
REMARK  186  A    between atoms: _434  and  _435
REMARK  187  A    between atoms: _434  and  _437
REMARK  188  A    between atoms: _440  and  _442
REMARK  189  A    between atoms: _442  and  _443
REMARK  190  A    between atoms: _442  and  _445
REMARK  191  A    between atoms: _445  and  _446
REMARK  192  A    between atoms: _449  and  _451
REMARK  193  A    between atoms: _451  and  _452
REMARK  194  A    between atoms: _451  and  _454
REMARK  195  A    between atoms: _457  and  _459
REMARK  196  A    between atoms: _459  and  _460
REMARK  197  A    between atoms: _459  and  _462
REMARK  198  A    between atoms: _462  and  _463
REMARK  199  A    between atoms: _466  and  _468
REMARK  200  A    between atoms: _468  and  _469
REMARK  201  A    between atoms: _468  and  _471
REMARK  202  A    between atoms: _471  and  _472
REMARK  203  A    between atoms: _475  and  _477
REMARK  204  A    between atoms: _477  and  _478
REMARK  205  A    between atoms: _477  and  _480
REMARK  206  A    between atoms: _480  and  _481
REMARK  207  A    between atoms: _481  and  _482
REMARK  208  A    between atoms: _482  and  _483
REMARK  209  A    between atoms: _483  and  _484
REMARK  210  A    between atoms: _488  and  _490
REMARK  211  A    between atoms: _490  and  _491
REMARK  212  A    between atoms: _490  and  _493
REMARK  213  A    between atoms: _493  and  _494
REMARK  214  A    between atoms: _504  and  _506
REMARK  215  A    between atoms: _506  and  _507
REMARK  216  A    between atoms: _506  and  _509
REMARK  217  A    between atoms: _509  and  _510
REMARK  218  A    between atoms: _510  and  _511
REMARK  219  A    between atoms: _514  and  _516
REMARK  220  A    between atoms: _516  and  _517
REMARK  221  A    between atoms: _516  and  _519
REMARK  222  A    between atoms: _519  and  _520
REMARK  223  A    between atoms: _522  and  _524
REMARK  224  A    between atoms: _524  and  _525
REMARK  225  A    between atoms: _524  and  _527
REMARK  226  A    between atoms: _527  and  _528
REMARK  227  A    between atoms: _534  and  _536
REMARK  228  A    between atoms: _536  and  _537
REMARK  229  A    between atoms: _536  and  _539
REMARK  230  A    between atoms: _539  and  _540
REMARK  231  A    between atoms: _543  and  _545
REMARK  232  A    between atoms: _545  and  _546
REMARK  233  A    between atoms: _545  and  _548
REMARK  234  A    between atoms: _551  and  _553
REMARK  235  A    between atoms: _553  and  _554
REMARK  236  A    between atoms: _556  and  _558
REMARK  237  A    between atoms: _558  and  _559
REMARK  238  A    between atoms: _558  and  _561
REMARK  239  A    between atoms: _561  and  _562
REMARK  240  A    between atoms: _565  and  _567
REMARK  241  A    between atoms: _567  and  _568
REMARK  242  A    between atoms: _567  and  _570
REMARK  243  A    between atoms: _570  and  _571
REMARK  244  A    between atoms: _571  and  _572
REMARK  245  A    between atoms: _572  and  _573
REMARK  246  A    between atoms: _573  and  _574
REMARK  247  A    between atoms: _578  and  _580
REMARK  248  A    between atoms: _580  and  _581
REMARK  249  A    between atoms: _580  and  _583
REMARK                            x       y       z     vdW  Elec       q    Type
REMARK                         _______ _______ _______ _____ _____    ______ ____
ROOT
ATOM      1  O   HOH     1       2.922  -7.298 -29.289  0.00  0.00    +0.000 OA
ENDROOT
TORSDOF 0
REMARK  Name = ../refined-set-2016/4o07/4o07_pocket.pdb
REMARK  249 active torsions:
REMARK  status: ('A' for Active; 'I' for Inactive)
REMARK    1  A    between atoms: _1  and  _3
REMARK    2  A    between atoms: _3  and  _4
REMARK    3  A    between atoms: _3  and  _6
REMARK    4  A    between atoms: _6  and  _7
REMARK    5  A    between atoms: _13  and  _15
REMARK    6  A    between atoms: _15  and  _16
REMARK    7  A    between atoms: _15  and  _18
REMARK    8  A    between atoms: _18  and  _19
REMARK    9  A    between atoms: _19  and  _20
REMARK   10  A    between atoms: _25  and  _27
REMARK   11  A    between atoms: _27  and  _28
REMARK   12  A    between atoms: _27  and  _30
REMARK   13  A    between atoms: _30  and  _31
REMARK   14  A    between atoms: _34  and  _36
REMARK   15  A    between atoms: _36  and  _37
REMARK   16  A    between atoms: _36  and  _39
REMARK   17  A    between atoms: _39  and  _40
REMARK   18  A    between atoms: _40  and  _41
REMARK   19  A    between atoms: _44  and  _46
REMARK   20  A    between atoms: _46  and  _47
REMARK   21  A    between atoms: _46  and  _49
REMARK   22  A    between atoms: _49  and  _50
REMARK   23  A    between atoms: _53  and  _55
REMARK   24  A    between atoms: _55  and  _56
REMARK   25  A    between atoms: _55  and  _58
REMARK   26  A    between atoms: _58  and  _59
REMARK   27  A    between atoms: _62  and  _64
REMARK   28  A    between atoms: _64  and  _65
REMARK   29  A    between atoms: _64  and  _67
REMARK   30  A    between atoms: _67  and  _68
REMARK   31  A    between atoms: _70  and  _72
REMARK   32  A    between atoms: _72  and  _73
REMARK   33  A    between atoms: _72  and  _75
REMARK   34  A    between atoms: _75  and  _76
REMARK   35  A    between atoms: _81  and  _83
REMARK   36  A    between atoms: _83  and  _84
REMARK   37  A    between atoms: _83  and  _86
REMARK   38  A    between atoms: _86  and  _87
REMARK   39  A    between atoms: _89  and  _91
REMARK   40  A    between atoms: _91  and  _92
REMARK   41  A    between atoms: _91  and  _94
REMARK   42  A    between atoms: _94  and  _95
REMARK   43  A    between atoms: _97  and  _99
REMARK   44  A    between atoms: _99  and  _100
REMARK   45  A    between atoms: _99  and  _102
REMARK   46  A    between atoms: _102  and  _103
REMARK   47  A    between atoms: _106  and  _108
REMARK   48  A    between atoms: _108  and  _109
REMARK   49  A    between atoms: _112  and  _114
REMARK   50  A    between atoms: _114  and  _115
REMARK   51  A    between atoms: _114  and  _117
REMARK   52  A    between atoms: _117  and  _118
REMARK   53  A    between atoms: _121  and  _123
REMARK   54  A    between atoms: _123  and  _124
REMARK   55  A    between atoms: _123  and  _126
REMARK   56  A    between atoms: _126  and  _127
REMARK   57  A    between atoms: _130  and  _132
REMARK   58  A    between atoms: _132  and  _133
REMARK   59  A    between atoms: _132  and  _135
REMARK   60  A    between atoms: _135  and  _136
REMARK   61  A    between atoms: _136  and  _137
REMARK   62  A    between atoms: _137  and  _138
REMARK   63  A    between atoms: _138  and  _139
REMARK   64  A    between atoms: _143  and  _145
REMARK   65  A    between atoms: _145  and  _146
REMARK   66  A    between atoms: _145  and  _148
REMARK   67  A    between atoms: _148  and  _149
REMARK   68  A    between atoms: _152  and  _154
REMARK   69  A    between atoms: _154  and  _155
REMARK   70  A    between atoms: _154  and  _157
REMARK   71  A    between atoms: _157  and  _158
REMARK   72  A    between atoms: _161  and  _163
REMARK   73  A    between atoms: _163  and  _164
REMARK   74  A    between atoms: _163  and  _166
REMARK   75  A    between atoms: _169  and  _171
REMARK   76  A    between atoms: _171  and  _172
REMARK   77  A    between atoms: _171  and  _174
REMARK   78  A    between atoms: _174  and  _175
REMARK   79  A    between atoms: _178  and  _180
REMARK   80  A    between atoms: _180  and  _181
REMARK   81  A    between atoms: _180  and  _183
REMARK   82  A    between atoms: _183  and  _184
REMARK   83  A    between atoms: _187  and  _189
REMARK   84  A    between atoms: _189  and  _190
REMARK   85  A    between atoms: _192  and  _194
REMARK   86  A    between atoms: _194  and  _195
REMARK   87  A    between atoms: _194  and  _197
REMARK   88  A    between atoms: _197  and  _198
REMARK   89  A    between atoms: _201  and  _203
REMARK   90  A    between atoms: _203  and  _204
REMARK   91  A    between atoms: _206  and  _208
REMARK   92  A    between atoms: _208  and  _209
REMARK   93  A    between atoms: _208  and  _211
REMARK   94  A    between atoms: _211  and  _212
REMARK   95  A    between atoms: _212  and  _213
REMARK   96  A    between atoms: _215  and  _217
REMARK   97  A    between atoms: _217  and  _218
REMARK   98  A    between atoms: _217  and  _220
REMARK   99  A    between atoms: _220  and  _221
REMARK  100  A    between atoms: _224  and  _226
REMARK  101  A    between atoms: _226  and  _227
REMARK  102  A    between atoms: _226  and  _229
REMARK  103  A    between atoms: _229  and  _230
REMARK  104  A    between atoms: _230  and  _231
REMARK  105  A    between atoms: _231  and  _232
REMARK  106  A    between atoms: _232  and  _233
REMARK  107  A    between atoms: _237  and  _239
REMARK  108  A    between atoms: _239  and  _240
REMARK  109  A    between atoms: _243  and  _245
REMARK  110  A    between atoms: _245  and  _246
REMARK  111  A    between atoms: _245  and  _248
REMARK  112  A    between atoms: _248  and  _249
REMARK  113  A    between atoms: _252  and  _254
REMARK  114  A    between atoms: _254  and  _255
REMARK  115  A    between atoms: _254  and  _257
REMARK  116  A    between atoms: _257  and  _258
REMARK  117  A    between atoms: _261  and  _263
REMARK  118  A    between atoms: _263  and  _264
REMARK  119  A    between atoms: _263  and  _266
REMARK  120  A    between atoms: _266  and  _267
REMARK  121  A    between atoms: _270  and  _272
REMARK  122  A    between atoms: _272  and  _273
REMARK  123  A    between atoms: _272  and  _275
REMARK  124  A    between atoms: _275  and  _276
REMARK  125  A    between atoms: _281  and  _283
REMARK  126  A    between atoms: _283  and  _284
REMARK  127  A    between atoms: _283  and  _286
REMARK  128  A    between atoms: _286  and  _287
REMARK  129  A    between atoms: _292  and  _294
REMARK  130  A    between atoms: _294  and  _295
REMARK  131  A    between atoms: _294  and  _297
REMARK  132  A    between atoms: _297  and  _298
REMARK  133  A    between atoms: _301  and  _303
REMARK  134  A    between atoms: _303  and  _304
REMARK  135  A    between atoms: _306  and  _308
REMARK  136  A    between atoms: _308  and  _309
REMARK  137  A    between atoms: _308  and  _311
REMARK  138  A    between atoms: _311  and  _312
REMARK  139  A    between atoms: _315  and  _317
REMARK  140  A    between atoms: _317  and  _318
REMARK  141  A    between atoms: _317  and  _320
REMARK  142  A    between atoms: _320  and  _321
REMARK  143  A    between atoms: _324  and  _326
REMARK  144  A    between atoms: _326  and  _327
REMARK  145  A    between atoms: _330  and  _332
REMARK  146  A    between atoms: _332  and  _333
REMARK  147  A    between atoms: _332  and  _335
REMARK  148  A    between atoms: _335  and  _336
REMARK  149  A    between atoms: _336  and  _337
REMARK  150  A    between atoms: _337  and  _338
REMARK  151  A    between atoms: _338  and  _339
REMARK  152  A    between atoms: _343  and  _345
REMARK  153  A    between atoms: _345  and  _346
REMARK  154  A    between atoms: _348  and  _350
REMARK  155  A    between atoms: _350  and  _351
REMARK  156  A    between atoms: _350  and  _353
REMARK  157  A    between atoms: _353  and  _354
REMARK  158  A    between atoms: _357  and  _359
REMARK  159  A    between atoms: _359  and  _360
REMARK  160  A    between atoms: _362  and  _364
REMARK  161  A    between atoms: _364  and  _365
REMARK  162  A    between atoms: _364  and  _367
REMARK  163  A    between atoms: _367  and  _368
REMARK  164  A    between atoms: _374  and  _376
REMARK  165  A    between atoms: _376  and  _377
REMARK  166  A    between atoms: _379  and  _381
REMARK  167  A    between atoms: _381  and  _382
REMARK  168  A    between atoms: _381  and  _384
REMARK  169  A    between atoms: _387  and  _389
REMARK  170  A    between atoms: _389  and  _390
REMARK  171  A    between atoms: _392  and  _394
REMARK  172  A    between atoms: _394  and  _395
REMARK  173  A    between atoms: _394  and  _397
REMARK  174  A    between atoms: _397  and  _398
REMARK  175  A    between atoms: _404  and  _406
REMARK  176  A    between atoms: _406  and  _407
REMARK  177  A    between atoms: _406  and  _409
REMARK  178  A    between atoms: _409  and  _410
REMARK  179  A    between atoms: _415  and  _416
REMARK  180  A    between atoms: _418  and  _420
REMARK  181  A    between atoms: _420  and  _421
REMARK  182  A    between atoms: _420  and  _423
REMARK  183  A    between atoms: _423  and  _424
REMARK  184  A    between atoms: _429  and  _430
REMARK  185  A    between atoms: _432  and  _434
REMARK  186  A    between atoms: _434  and  _435
REMARK  187  A    between atoms: _434  and  _437
REMARK  188  A    between atoms: _440  and  _442
REMARK  189  A    between atoms: _442  and  _443
REMARK  190  A    between atoms: _442  and  _445
REMARK  191  A    between atoms: _445  and  _446
REMARK  192  A    between atoms: _449  and  _451
REMARK  193  A    between atoms: _451  and  _452
REMARK  194  A    between atoms: _451  and  _454
REMARK  195  A    between atoms: _457  and  _459
REMARK  196  A    between atoms: _459  and  _460
REMARK  197  A    between atoms: _459  and  _462
REMARK  198  A    between atoms: _462  and  _463
REMARK  199  A    between atoms: _466  and  _468
REMARK  200  A    between atoms: _468  and  _469
REMARK  201  A    between atoms: _468  and  _471
REMARK  202  A    between atoms: _471  and  _472
REMARK  203  A    between atoms: _475  and  _477
REMARK  204  A    between atoms: _477  and  _478
REMARK  205  A    between atoms: _477  and  _480
REMARK  206  A    between atoms: _480  and  _481
REMARK  207  A    between atoms: _481  and  _482
REMARK  208  A    between atoms: _482  and  _483
REMARK  209  A    between atoms: _483  and  _484
REMARK  210  A    between atoms: _488  and  _490
REMARK  211  A    between atoms: _490  and  _491
REMARK  212  A    between atoms: _490  and  _493
REMARK  213  A    between atoms: _493  and  _494
REMARK  214  A    between atoms: _504  and  _506
REMARK  215  A    between atoms: _506  and  _507
REMARK  216  A    between atoms: _506  and  _509
REMARK  217  A    between atoms: _509  and  _510
REMARK  218  A    between atoms: _510  and  _511
REMARK  219  A    between atoms: _514  and  _516
REMARK  220  A    between atoms: _516  and  _517
REMARK  221  A    between atoms: _516  and  _519
REMARK  222  A    between atoms: _519  and  _520
REMARK  223  A    between atoms: _522  and  _524
REMARK  224  A    between atoms: _524  and  _525
REMARK  225  A    between atoms: _524  and  _527
REMARK  226  A    between atoms: _527  and  _528
REMARK  227  A    between atoms: _534  and  _536
REMARK  228  A    between atoms: _536  and  _537
REMARK  229  A    between atoms: _536  and  _539
REMARK  230  A    between atoms: _539  and  _540
REMARK  231  A    between atoms: _543  and  _545
REMARK  232  A    between atoms: _545  and  _546
REMARK  233  A    between atoms: _545  and  _548
REMARK  234  A    between atoms: _551  and  _553
REMARK  235  A    between atoms: _553  and  _554
REMARK  236  A    between atoms: _556  and  _558
REMARK  237  A    between atoms: _558  and  _559
REMARK  238  A    between atoms: _558  and  _561
REMARK  239  A    between atoms: _561  and  _562
REMARK  240  A    between atoms: _565  and  _567
REMARK  241  A    between atoms: _567  and  _568
REMARK  242  A    between atoms: _567  and  _570
REMARK  243  A    between atoms: _570  and  _571
REMARK  244  A    between atoms: _571  and  _572
REMARK  245  A    between atoms: _572  and  _573
REMARK  246  A    between atoms: _573  and  _574
REMARK  247  A    between atoms: _578  and  _580
REMARK  248  A    between atoms: _580  and  _581
REMARK  249  A    between atoms: _580  and  _583
REMARK                            x       y       z     vdW  Elec       q    Type
REMARK                         _______ _______ _______ _____ _____    ______ ____
ROOT
ATOM      1  O   HOH     1      11.994 -14.089 -25.301  0.00  0.00    +0.000 OA
ENDROOT
TORSDOF 0
REMARK  Name = ../refined-set-2016/4o07/4o07_pocket.pdb
REMARK  249 active torsions:
REMARK  status: ('A' for Active; 'I' for Inactive)
REMARK    1  A    between atoms: _1  and  _3
REMARK    2  A    between atoms: _3  and  _4
REMARK    3  A    between atoms: _3  and  _6
REMARK    4  A    between atoms: _6  and  _7
REMARK    5  A    between atoms: _13  and  _15
REMARK    6  A    between atoms: _15  and  _16
REMARK    7  A    between atoms: _15  and  _18
REMARK    8  A    between atoms: _18  and  _19
REMARK    9  A    between atoms: _19  and  _20
REMARK   10  A    between atoms: _25  and  _27
REMARK   11  A    between atoms: _27  and  _28
REMARK   12  A    between atoms: _27  and  _30
REMARK   13  A    between atoms: _30  and  _31
REMARK   14  A    between atoms: _34  and  _36
REMARK   15  A    between atoms: _36  and  _37
REMARK   16  A    between atoms: _36  and  _39
REMARK   17  A    between atoms: _39  and  _40
REMARK   18  A    between atoms: _40  and  _41
REMARK   19  A    between atoms: _44  and  _46
REMARK   20  A    between atoms: _46  and  _47
REMARK   21  A    between atoms: _46  and  _49
REMARK   22  A    between atoms: _49  and  _50
REMARK   23  A    between atoms: _53  and  _55
REMARK   24  A    between atoms: _55  and  _56
REMARK   25  A    between atoms: _55  and  _58
REMARK   26  A    between atoms: _58  and  _59
REMARK   27  A    between atoms: _62  and  _64
REMARK   28  A    between atoms: _64  and  _65
REMARK   29  A    between atoms: _64  and  _67
REMARK   30  A    between atoms: _67  and  _68
REMARK   31  A    between atoms: _70  and  _72
REMARK   32  A    between atoms: _72  and  _73
REMARK   33  A    between atoms: _72  and  _75
REMARK   34  A    between atoms: _75  and  _76
REMARK   35  A    between atoms: _81  and  _83
REMARK   36  A    between atoms: _83  and  _84
REMARK   37  A    between atoms: _83  and  _86
REMARK   38  A    between atoms: _86  and  _87
REMARK   39  A    between atoms: _89  and  _91
REMARK   40  A    between atoms: _91  and  _92
REMARK   41  A    between atoms: _91  and  _94
REMARK   42  A    between atoms: _94  and  _95
REMARK   43  A    between atoms: _97  and  _99
REMARK   44  A    between atoms: _99  and  _100
REMARK   45  A    between atoms: _99  and  _102
REMARK   46  A    between atoms: _102  and  _103
REMARK   47  A    between atoms: _106  and  _108
REMARK   48  A    between atoms: _108  and  _109
REMARK   49  A    between atoms: _112  and  _114
REMARK   50  A    between atoms: _114  and  _115
REMARK   51  A    between atoms: _114  and  _117
REMARK   52  A    between atoms: _117  and  _118
REMARK   53  A    between atoms: _121  and  _123
REMARK   54  A    between atoms: _123  and  _124
REMARK   55  A    between atoms: _123  and  _126
REMARK   56  A    between atoms: _126  and  _127
REMARK   57  A    between atoms: _130  and  _132
REMARK   58  A    between atoms: _132  and  _133
REMARK   59  A    between atoms: _132  and  _135
REMARK   60  A    between atoms: _135  and  _136
REMARK   61  A    between atoms: _136  and  _137
REMARK   62  A    between atoms: _137  and  _138
REMARK   63  A    between atoms: _138  and  _139
REMARK   64  A    between atoms: _143  and  _145
REMARK   65  A    between atoms: _145  and  _146
REMARK   66  A    between atoms: _145  and  _148
REMARK   67  A    between atoms: _148  and  _149
REMARK   68  A    between atoms: _152  and  _154
REMARK   69  A    between atoms: _154  and  _155
REMARK   70  A    between atoms: _154  and  _157
REMARK   71  A    between atoms: _157  and  _158
REMARK   72  A    between atoms: _161  and  _163
REMARK   73  A    between atoms: _163  and  _164
REMARK   74  A    between atoms: _163  and  _166
REMARK   75  A    between atoms: _169  and  _171
REMARK   76  A    between atoms: _171  and  _172
REMARK   77  A    between atoms: _171  and  _174
REMARK   78  A    between atoms: _174  and  _175
REMARK   79  A    between atoms: _178  and  _180
REMARK   80  A    between atoms: _180  and  _181
REMARK   81  A    between atoms: _180  and  _183
REMARK   82  A    between atoms: _183  and  _184
REMARK   83  A    between atoms: _187  and  _189
REMARK   84  A    between atoms: _189  and  _190
REMARK   85  A    between atoms: _192  and  _194
REMARK   86  A    between atoms: _194  and  _195
REMARK   87  A    between atoms: _194  and  _197
REMARK   88  A    between atoms: _197  and  _198
REMARK   89  A    between atoms: _201  and  _203
REMARK   90  A    between atoms: _203  and  _204
REMARK   91  A    between atoms: _206  and  _208
REMARK   92  A    between atoms: _208  and  _209
REMARK   93  A    between atoms: _208  and  _211
REMARK   94  A    between atoms: _211  and  _212
REMARK   95  A    between atoms: _212  and  _213
REMARK   96  A    between atoms: _215  and  _217
REMARK   97  A    between atoms: _217  and  _218
REMARK   98  A    between atoms: _217  and  _220
REMARK   99  A    between atoms: _220  and  _221
REMARK  100  A    between atoms: _224  and  _226
REMARK  101  A    between atoms: _226  and  _227
REMARK  102  A    between atoms: _226  and  _229
REMARK  103  A    between atoms: _229  and  _230
REMARK  104  A    between atoms: _230  and  _231
REMARK  105  A    between atoms: _231  and  _232
REMARK  106  A    between atoms: _232  and  _233
REMARK  107  A    between atoms: _237  and  _239
REMARK  108  A    between atoms: _239  and  _240
REMARK  109  A    between atoms: _243  and  _245
REMARK  110  A    between atoms: _245  and  _246
REMARK  111  A    between atoms: _245  and  _248
REMARK  112  A    between atoms: _248  and  _249
REMARK  113  A    between atoms: _252  and  _254
REMARK  114  A    between atoms: _254  and  _255
REMARK  115  A    between atoms: _254  and  _257
REMARK  116  A    between atoms: _257  and  _258
REMARK  117  A    between atoms: _261  and  _263
REMARK  118  A    between atoms: _263  and  _264
REMARK  119  A    between atoms: _263  and  _266
REMARK  120  A    between atoms: _266  and  _267
REMARK  121  A    between atoms: _270  and  _272
REMARK  122  A    between atoms: _272  and  _273
REMARK  123  A    between atoms: _272  and  _275
REMARK  124  A    between atoms: _275  and  _276
REMARK  125  A    between atoms: _281  and  _283
REMARK  126  A    between atoms: _283  and  _284
REMARK  127  A    between atoms: _283  and  _286
REMARK  128  A    between atoms: _286  and  _287
REMARK  129  A    between atoms: _292  and  _294
REMARK  130  A    between atoms: _294  and  _295
REMARK  131  A    between atoms: _294  and  _297
REMARK  132  A    between atoms: _297  and  _298
REMARK  133  A    between atoms: _301  and  _303
REMARK  134  A    between atoms: _303  and  _304
REMARK  135  A    between atoms: _306  and  _308
REMARK  136  A    between atoms: _308  and  _309
REMARK  137  A    between atoms: _308  and  _311
REMARK  138  A    between atoms: _311  and  _312
REMARK  139  A    between atoms: _315  and  _317
REMARK  140  A    between atoms: _317  and  _318
REMARK  141  A    between atoms: _317  and  _320
REMARK  142  A    between atoms: _320  and  _321
REMARK  143  A    between atoms: _324  and  _326
REMARK  144  A    between atoms: _326  and  _327
REMARK  145  A    between atoms: _330  and  _332
REMARK  146  A    between atoms: _332  and  _333
REMARK  147  A    between atoms: _332  and  _335
REMARK  148  A    between atoms: _335  and  _336
REMARK  149  A    between atoms: _336  and  _337
REMARK  150  A    between atoms: _337  and  _338
REMARK  151  A    between atoms: _338  and  _339
REMARK  152  A    between atoms: _343  and  _345
REMARK  153  A    between atoms: _345  and  _346
REMARK  154  A    between atoms: _348  and  _350
REMARK  155  A    between atoms: _350  and  _351
REMARK  156  A    between atoms: _350  and  _353
REMARK  157  A    between atoms: _353  and  _354
REMARK  158  A    between atoms: _357  and  _359
REMARK  159  A    between atoms: _359  and  _360
REMARK  160  A    between atoms: _362  and  _364
REMARK  161  A    between atoms: _364  and  _365
REMARK  162  A    between atoms: _364  and  _367
REMARK  163  A    between atoms: _367  and  _368
REMARK  164  A    between atoms: _374  and  _376
REMARK  165  A    between atoms: _376  and  _377
REMARK  166  A    between atoms: _379  and  _381
REMARK  167  A    between atoms: _381  and  _382
REMARK  168  A    between atoms: _381  and  _384
REMARK  169  A    between atoms: _387  and  _389
REMARK  170  A    between atoms: _389  and  _390
REMARK  171  A    between atoms: _392  and  _394
REMARK  172  A    between atoms: _394  and  _395
REMARK  173  A    between atoms: _394  and  _397
REMARK  174  A    between atoms: _397  and  _398
REMARK  175  A    between atoms: _404  and  _406
REMARK  176  A    between atoms: _406  and  _407
REMARK  177  A    between atoms: _406  and  _409
REMARK  178  A    between atoms: _409  and  _410
REMARK  179  A    between atoms: _415  and  _416
REMARK  180  A    between atoms: _418  and  _420
REMARK  181  A    between atoms: _420  and  _421
REMARK  182  A    between atoms: _420  and  _423
REMARK  183  A    between atoms: _423  and  _424
REMARK  184  A    between atoms: _429  and  _430
REMARK  185  A    between atoms: _432  and  _434
REMARK  186  A    between atoms: _434  and  _435
REMARK  187  A    between atoms: _434  and  _437
REMARK  188  A    between atoms: _440  and  _442
REMARK  189  A    between atoms: _442  and  _443
REMARK  190  A    between atoms: _442  and  _445
REMARK  191  A    between atoms: _445  and  _446
REMARK  192  A    between atoms: _449  and  _451
REMARK  193  A    between atoms: _451  and  _452
REMARK  194  A    between atoms: _451  and  _454
REMARK  195  A    between atoms: _457  and  _459
REMARK  196  A    between atoms: _459  and  _460
REMARK  197  A    between atoms: _459  and  _462
REMARK  198  A    between atoms: _462  and  _463
REMARK  199  A    between atoms: _466  and  _468
REMARK  200  A    between atoms: _468  and  _469
REMARK  201  A    between atoms: _468  and  _471
REMARK  202  A    between atoms: _471  and  _472
REMARK  203  A    between atoms: _475  and  _477
REMARK  204  A    between atoms: _477  and  _478
REMARK  205  A    between atoms: _477  and  _480
REMARK  206  A    between atoms: _480  and  _481
REMARK  207  A    between atoms: _481  and  _482
REMARK  208  A    between atoms: _482  and  _483
REMARK  209  A    between atoms: _483  and  _484
REMARK  210  A    between atoms: _488  and  _490
REMARK  211  A    between atoms: _490  and  _491
REMARK  212  A    between atoms: _490  and  _493
REMARK  213  A    between atoms: _493  and  _494
REMARK  214  A    between atoms: _504  and  _506
REMARK  215  A    between atoms: _506  and  _507
REMARK  216  A    between atoms: _506  and  _509
REMARK  217  A    between atoms: _509  and  _510
REMARK  218  A    between atoms: _510  and  _511
REMARK  219  A    between atoms: _514  and  _516
REMARK  220  A    between atoms: _516  and  _517
REMARK  221  A    between atoms: _516  and  _519
REMARK  222  A    between atoms: _519  and  _520
REMARK  223  A    between atoms: _522  and  _524
REMARK  224  A    between atoms: _524  and  _525
REMARK  225  A    between atoms: _524  and  _527
REMARK  226  A    between atoms: _527  and  _528
REMARK  227  A    between atoms: _534  and  _536
REMARK  228  A    between atoms: _536  and  _537
REMARK  229  A    between atoms: _536  and  _539
REMARK  230  A    between atoms: _539  and  _540
REMARK  231  A    between atoms: _543  and  _545
REMARK  232  A    between atoms: _545  and  _546
REMARK  233  A    between atoms: _545  and  _548
REMARK  234  A    between atoms: _551  and  _553
REMARK  235  A    between atoms: _553  and  _554
REMARK  236  A    between atoms: _556  and  _558
REMARK  237  A    between atoms: _558  and  _559
REMARK  238  A    between atoms: _558  and  _561
REMARK  239  A    between atoms: _561  and  _562
REMARK  240  A    between atoms: _565  and  _567
REMARK  241  A    between atoms: _567  and  _568
REMARK  242  A    between atoms: _567  and  _570
REMARK  243  A    between atoms: _570  and  _571
REMARK  244  A    between atoms: _571  and  _572
REMARK  245  A    between atoms: _572  and  _573
REMARK  246  A    between atoms: _573  and  _574
REMARK  247  A    between atoms: _578  and  _580
REMARK  248  A    between atoms: _580  and  _581
REMARK  249  A    between atoms: _580  and  _583
REMARK                            x       y       z     vdW  Elec       q    Type
REMARK                         _______ _______ _______ _____ _____    ______ ____
ROOT
ATOM      1  O   HOH     1      14.580 -13.811 -26.185  0.00  0.00    +0.000 OA
ENDROOT
TORSDOF 0
REMARK  Name = ../refined-set-2016/4o07/4o07_pocket.pdb
REMARK  249 active torsions:
REMARK  status: ('A' for Active; 'I' for Inactive)
REMARK    1  A    between atoms: _1  and  _3
REMARK    2  A    between atoms: _3  and  _4
REMARK    3  A    between atoms: _3  and  _6
REMARK    4  A    between atoms: _6  and  _7
REMARK    5  A    between atoms: _13  and  _15
REMARK    6  A    between atoms: _15  and  _16
REMARK    7  A    between atoms: _15  and  _18
REMARK    8  A    between atoms: _18  and  _19
REMARK    9  A    between atoms: _19  and  _20
REMARK   10  A    between atoms: _25  and  _27
REMARK   11  A    between atoms: _27  and  _28
REMARK   12  A    between atoms: _27  and  _30
REMARK   13  A    between atoms: _30  and  _31
REMARK   14  A    between atoms: _34  and  _36
REMARK   15  A    between atoms: _36  and  _37
REMARK   16  A    between atoms: _36  and  _39
REMARK   17  A    between atoms: _39  and  _40
REMARK   18  A    between atoms: _40  and  _41
REMARK   19  A    between atoms: _44  and  _46
REMARK   20  A    between atoms: _46  and  _47
REMARK   21  A    between atoms: _46  and  _49
REMARK   22  A    between atoms: _49  and  _50
REMARK   23  A    between atoms: _53  and  _55
REMARK   24  A    between atoms: _55  and  _56
REMARK   25  A    between atoms: _55  and  _58
REMARK   26  A    between atoms: _58  and  _59
REMARK   27  A    between atoms: _62  and  _64
REMARK   28  A    between atoms: _64  and  _65
REMARK   29  A    between atoms: _64  and  _67
REMARK   30  A    between atoms: _67  and  _68
REMARK   31  A    between atoms: _70  and  _72
REMARK   32  A    between atoms: _72  and  _73
REMARK   33  A    between atoms: _72  and  _75
REMARK   34  A    between atoms: _75  and  _76
REMARK   35  A    between atoms: _81  and  _83
REMARK   36  A    between atoms: _83  and  _84
REMARK   37  A    between atoms: _83  and  _86
REMARK   38  A    between atoms: _86  and  _87
REMARK   39  A    between atoms: _89  and  _91
REMARK   40  A    between atoms: _91  and  _92
REMARK   41  A    between atoms: _91  and  _94
REMARK   42  A    between atoms: _94  and  _95
REMARK   43  A    between atoms: _97  and  _99
REMARK   44  A    between atoms: _99  and  _100
REMARK   45  A    between atoms: _99  and  _102
REMARK   46  A    between atoms: _102  and  _103
REMARK   47  A    between atoms: _106  and  _108
REMARK   48  A    between atoms: _108  and  _109
REMARK   49  A    between atoms: _112  and  _114
REMARK   50  A    between atoms: _114  and  _115
REMARK   51  A    between atoms: _114  and  _117
REMARK   52  A    between atoms: _117  and  _118
REMARK   53  A    between atoms: _121  and  _123
REMARK   54  A    between atoms: _123  and  _124
REMARK   55  A    between atoms: _123  and  _126
REMARK   56  A    between atoms: _126  and  _127
REMARK   57  A    between atoms: _130  and  _132
REMARK   58  A    between atoms: _132  and  _133
REMARK   59  A    between atoms: _132  and  _135
REMARK   60  A    between atoms: _135  and  _136
REMARK   61  A    between atoms: _136  and  _137
REMARK   62  A    between atoms: _137  and  _138
REMARK   63  A    between atoms: _138  and  _139
REMARK   64  A    between atoms: _143  and  _145
REMARK   65  A    between atoms: _145  and  _146
REMARK   66  A    between atoms: _145  and  _148
REMARK   67  A    between atoms: _148  and  _149
REMARK   68  A    between atoms: _152  and  _154
REMARK   69  A    between atoms: _154  and  _155
REMARK   70  A    between atoms: _154  and  _157
REMARK   71  A    between atoms: _157  and  _158
REMARK   72  A    between atoms: _161  and  _163
REMARK   73  A    between atoms: _163  and  _164
REMARK   74  A    between atoms: _163  and  _166
REMARK   75  A    between atoms: _169  and  _171
REMARK   76  A    between atoms: _171  and  _172
REMARK   77  A    between atoms: _171  and  _174
REMARK   78  A    between atoms: _174  and  _175
REMARK   79  A    between atoms: _178  and  _180
REMARK   80  A    between atoms: _180  and  _181
REMARK   81  A    between atoms: _180  and  _183
REMARK   82  A    between atoms: _183  and  _184
REMARK   83  A    between atoms: _187  and  _189
REMARK   84  A    between atoms: _189  and  _190
REMARK   85  A    between atoms: _192  and  _194
REMARK   86  A    between atoms: _194  and  _195
REMARK   87  A    between atoms: _194  and  _197
REMARK   88  A    between atoms: _197  and  _198
REMARK   89  A    between atoms: _201  and  _203
REMARK   90  A    between atoms: _203  and  _204
REMARK   91  A    between atoms: _206  and  _208
REMARK   92  A    between atoms: _208  and  _209
REMARK   93  A    between atoms: _208  and  _211
REMARK   94  A    between atoms: _211  and  _212
REMARK   95  A    between atoms: _212  and  _213
REMARK   96  A    between atoms: _215  and  _217
REMARK   97  A    between atoms: _217  and  _218
REMARK   98  A    between atoms: _217  and  _220
REMARK   99  A    between atoms: _220  and  _221
REMARK  100  A    between atoms: _224  and  _226
REMARK  101  A    between atoms: _226  and  _227
REMARK  102  A    between atoms: _226  and  _229
REMARK  103  A    between atoms: _229  and  _230
REMARK  104  A    between atoms: _230  and  _231
REMARK  105  A    between atoms: _231  and  _232
REMARK  106  A    between atoms: _232  and  _233
REMARK  107  A    between atoms: _237  and  _239
REMARK  108  A    between atoms: _239  and  _240
REMARK  109  A    between atoms: _243  and  _245
REMARK  110  A    between atoms: _245  and  _246
REMARK  111  A    between atoms: _245  and  _248
REMARK  112  A    between atoms: _248  and  _249
REMARK  113  A    between atoms: _252  and  _254
REMARK  114  A    between atoms: _254  and  _255
REMARK  115  A    between atoms: _254  and  _257
REMARK  116  A    between atoms: _257  and  _258
REMARK  117  A    between atoms: _261  and  _263
REMARK  118  A    between atoms: _263  and  _264
REMARK  119  A    between atoms: _263  and  _266
REMARK  120  A    between atoms: _266  and  _267
REMARK  121  A    between atoms: _270  and  _272
REMARK  122  A    between atoms: _272  and  _273
REMARK  123  A    between atoms: _272  and  _275
REMARK  124  A    between atoms: _275  and  _276
REMARK  125  A    between atoms: _281  and  _283
REMARK  126  A    between atoms: _283  and  _284
REMARK  127  A    between atoms: _283  and  _286
REMARK  128  A    between atoms: _286  and  _287
REMARK  129  A    between atoms: _292  and  _294
REMARK  130  A    between atoms: _294  and  _295
REMARK  131  A    between atoms: _294  and  _297
REMARK  132  A    between atoms: _297  and  _298
REMARK  133  A    between atoms: _301  and  _303
REMARK  134  A    between atoms: _303  and  _304
REMARK  135  A    between atoms: _306  and  _308
REMARK  136  A    between atoms: _308  and  _309
REMARK  137  A    between atoms: _308  and  _311
REMARK  138  A    between atoms: _311  and  _312
REMARK  139  A    between atoms: _315  and  _317
REMARK  140  A    between atoms: _317  and  _318
REMARK  141  A    between atoms: _317  and  _320
REMARK  142  A    between atoms: _320  and  _321
REMARK  143  A    between atoms: _324  and  _326
REMARK  144  A    between atoms: _326  and  _327
REMARK  145  A    between atoms: _330  and  _332
REMARK  146  A    between atoms: _332  and  _333
REMARK  147  A    between atoms: _332  and  _335
REMARK  148  A    between atoms: _335  and  _336
REMARK  149  A    between atoms: _336  and  _337
REMARK  150  A    between atoms: _337  and  _338
REMARK  151  A    between atoms: _338  and  _339
REMARK  152  A    between atoms: _343  and  _345
REMARK  153  A    between atoms: _345  and  _346
REMARK  154  A    between atoms: _348  and  _350
REMARK  155  A    between atoms: _350  and  _351
REMARK  156  A    between atoms: _350  and  _353
REMARK  157  A    between atoms: _353  and  _354
REMARK  158  A    between atoms: _357  and  _359
REMARK  159  A    between atoms: _359  and  _360
REMARK  160  A    between atoms: _362  and  _364
REMARK  161  A    between atoms: _364  and  _365
REMARK  162  A    between atoms: _364  and  _367
REMARK  163  A    between atoms: _367  and  _368
REMARK  164  A    between atoms: _374  and  _376
REMARK  165  A    between atoms: _376  and  _377
REMARK  166  A    between atoms: _379  and  _381
REMARK  167  A    between atoms: _381  and  _382
REMARK  168  A    between atoms: _381  and  _384
REMARK  169  A    between atoms: _387  and  _389
REMARK  170  A    between atoms: _389  and  _390
REMARK  171  A    between atoms: _392  and  _394
REMARK  172  A    between atoms: _394  and  _395
REMARK  173  A    between atoms: _394  and  _397
REMARK  174  A    between atoms: _397  and  _398
REMARK  175  A    between atoms: _404  and  _406
REMARK  176  A    between atoms: _406  and  _407
REMARK  177  A    between atoms: _406  and  _409
REMARK  178  A    between atoms: _409  and  _410
REMARK  179  A    between atoms: _415  and  _416
REMARK  180  A    between atoms: _418  and  _420
REMARK  181  A    between atoms: _420  and  _421
REMARK  182  A    between atoms: _420  and  _423
REMARK  183  A    between atoms: _423  and  _424
REMARK  184  A    between atoms: _429  and  _430
REMARK  185  A    between atoms: _432  and  _434
REMARK  186  A    between atoms: _434  and  _435
REMARK  187  A    between atoms: _434  and  _437
REMARK  188  A    between atoms: _440  and  _442
REMARK  189  A    between atoms: _442  and  _443
REMARK  190  A    between atoms: _442  and  _445
REMARK  191  A    between atoms: _445  and  _446
REMARK  192  A    between atoms: _449  and  _451
REMARK  193  A    between atoms: _451  and  _452
REMARK  194  A    between atoms: _451  and  _454
REMARK  195  A    between atoms: _457  and  _459
REMARK  196  A    between atoms: _459  and  _460
REMARK  197  A    between atoms: _459  and  _462
REMARK  198  A    between atoms: _462  and  _463
REMARK  199  A    between atoms: _466  and  _468
REMARK  200  A    between atoms: _468  and  _469
REMARK  201  A    between atoms: _468  and  _471
REMARK  202  A    between atoms: _471  and  _472
REMARK  203  A    between atoms: _475  and  _477
REMARK  204  A    between atoms: _477  and  _478
REMARK  205  A    between atoms: _477  and  _480
REMARK  206  A    between atoms: _480  and  _481
REMARK  207  A    between atoms: _481  and  _482
REMARK  208  A    between atoms: _482  and  _483
REMARK  209  A    between atoms: _483  and  _484
REMARK  210  A    between atoms: _488  and  _490
REMARK  211  A    between atoms: _490  and  _491
REMARK  212  A    between atoms: _490  and  _493
REMARK  213  A    between atoms: _493  and  _494
REMARK  214  A    between atoms: _504  and  _506
REMARK  215  A    between atoms: _506  and  _507
REMARK  216  A    between atoms: _506  and  _509
REMARK  217  A    between atoms: _509  and  _510
REMARK  218  A    between atoms: _510  and  _511
REMARK  219  A    between atoms: _514  and  _516
REMARK  220  A    between atoms: _516  and  _517
REMARK  221  A    between atoms: _516  and  _519
REMARK  222  A    between atoms: _519  and  _520
REMARK  223  A    between atoms: _522  and  _524
REMARK  224  A    between atoms: _524  and  _525
REMARK  225  A    between atoms: _524  and  _527
REMARK  226  A    between atoms: _527  and  _528
REMARK  227  A    between atoms: _534  and  _536
REMARK  228  A    between atoms: _536  and  _537
REMARK  229  A    between atoms: _536  and  _539
REMARK  230  A    between atoms: _539  and  _540
REMARK  231  A    between atoms: _543  and  _545
REMARK  232  A    between atoms: _545  and  _546
REMARK  233  A    between atoms: _545  and  _548
REMARK  234  A    between atoms: _551  and  _553
REMARK  235  A    between atoms: _553  and  _554
REMARK  236  A    between atoms: _556  and  _558
REMARK  237  A    between atoms: _558  and  _559
REMARK  238  A    between atoms: _558  and  _561
REMARK  239  A    between atoms: _561  and  _562
REMARK  240  A    between atoms: _565  and  _567
REMARK  241  A    between atoms: _567  and  _568
REMARK  242  A    between atoms: _567  and  _570
REMARK  243  A    between atoms: _570  and  _571
REMARK  244  A    between atoms: _571  and  _572
REMARK  245  A    between atoms: _572  and  _573
REMARK  246  A    between atoms: _573  and  _574
REMARK  247  A    between atoms: _578  and  _580
REMARK  248  A    between atoms: _580  and  _581
REMARK  249  A    between atoms: _580  and  _583
REMARK                            x       y       z     vdW  Elec       q    Type
REMARK                         _______ _______ _______ _____ _____    ______ ____
ROOT
ATOM      1  O   HOH     1       0.987  -2.041 -19.918  0.00  0.00    +0.000 OA
ENDROOT
TORSDOF 0
REMARK  Name = ../refined-set-2016/4o07/4o07_pocket.pdb
REMARK  249 active torsions:
REMARK  status: ('A' for Active; 'I' for Inactive)
REMARK    1  A    between atoms: _1  and  _3
REMARK    2  A    between atoms: _3  and  _4
REMARK    3  A    between atoms: _3  and  _6
REMARK    4  A    between atoms: _6  and  _7
REMARK    5  A    between atoms: _13  and  _15
REMARK    6  A    between atoms: _15  and  _16
REMARK    7  A    between atoms: _15  and  _18
REMARK    8  A    between atoms: _18  and  _19
REMARK    9  A    between atoms: _19  and  _20
REMARK   10  A    between atoms: _25  and  _27
REMARK   11  A    between atoms: _27  and  _28
REMARK   12  A    between atoms: _27  and  _30
REMARK   13  A    between atoms: _30  and  _31
REMARK   14  A    between atoms: _34  and  _36
REMARK   15  A    between atoms: _36  and  _37
REMARK   16  A    between atoms: _36  and  _39
REMARK   17  A    between atoms: _39  and  _40
REMARK   18  A    between atoms: _40  and  _41
REMARK   19  A    between atoms: _44  and  _46
REMARK   20  A    between atoms: _46  and  _47
REMARK   21  A    between atoms: _46  and  _49
REMARK   22  A    between atoms: _49  and  _50
REMARK   23  A    between atoms: _53  and  _55
REMARK   24  A    between atoms: _55  and  _56
REMARK   25  A    between atoms: _55  and  _58
REMARK   26  A    between atoms: _58  and  _59
REMARK   27  A    between atoms: _62  and  _64
REMARK   28  A    between atoms: _64  and  _65
REMARK   29  A    between atoms: _64  and  _67
REMARK   30  A    between atoms: _67  and  _68
REMARK   31  A    between atoms: _70  and  _72
REMARK   32  A    between atoms: _72  and  _73
REMARK   33  A    between atoms: _72  and  _75
REMARK   34  A    between atoms: _75  and  _76
REMARK   35  A    between atoms: _81  and  _83
REMARK   36  A    between atoms: _83  and  _84
REMARK   37  A    between atoms: _83  and  _86
REMARK   38  A    between atoms: _86  and  _87
REMARK   39  A    between atoms: _89  and  _91
REMARK   40  A    between atoms: _91  and  _92
REMARK   41  A    between atoms: _91  and  _94
REMARK   42  A    between atoms: _94  and  _95
REMARK   43  A    between atoms: _97  and  _99
REMARK   44  A    between atoms: _99  and  _100
REMARK   45  A    between atoms: _99  and  _102
REMARK   46  A    between atoms: _102  and  _103
REMARK   47  A    between atoms: _106  and  _108
REMARK   48  A    between atoms: _108  and  _109
REMARK   49  A    between atoms: _112  and  _114
REMARK   50  A    between atoms: _114  and  _115
REMARK   51  A    between atoms: _114  and  _117
REMARK   52  A    between atoms: _117  and  _118
REMARK   53  A    between atoms: _121  and  _123
REMARK   54  A    between atoms: _123  and  _124
REMARK   55  A    between atoms: _123  and  _126
REMARK   56  A    between atoms: _126  and  _127
REMARK   57  A    between atoms: _130  and  _132
REMARK   58  A    between atoms: _132  and  _133
REMARK   59  A    between atoms: _132  and  _135
REMARK   60  A    between atoms: _135  and  _136
REMARK   61  A    between atoms: _136  and  _137
REMARK   62  A    between atoms: _137  and  _138
REMARK   63  A    between atoms: _138  and  _139
REMARK   64  A    between atoms: _143  and  _145
REMARK   65  A    between atoms: _145  and  _146
REMARK   66  A    between atoms: _145  and  _148
REMARK   67  A    between atoms: _148  and  _149
REMARK   68  A    between atoms: _152  and  _154
REMARK   69  A    between atoms: _154  and  _155
REMARK   70  A    between atoms: _154  and  _157
REMARK   71  A    between atoms: _157  and  _158
REMARK   72  A    between atoms: _161  and  _163
REMARK   73  A    between atoms: _163  and  _164
REMARK   74  A    between atoms: _163  and  _166
REMARK   75  A    between atoms: _169  and  _171
REMARK   76  A    between atoms: _171  and  _172
REMARK   77  A    between atoms: _171  and  _174
REMARK   78  A    between atoms: _174  and  _175
REMARK   79  A    between atoms: _178  and  _180
REMARK   80  A    between atoms: _180  and  _181
REMARK   81  A    between atoms: _180  and  _183
REMARK   82  A    between atoms: _183  and  _184
REMARK   83  A    between atoms: _187  and  _189
REMARK   84  A    between atoms: _189  and  _190
REMARK   85  A    between atoms: _192  and  _194
REMARK   86  A    between atoms: _194  and  _195
REMARK   87  A    between atoms: _194  and  _197
REMARK   88  A    between atoms: _197  and  _198
REMARK   89  A    between atoms: _201  and  _203
REMARK   90  A    between atoms: _203  and  _204
REMARK   91  A    between atoms: _206  and  _208
REMARK   92  A    between atoms: _208  and  _209
REMARK   93  A    between atoms: _208  and  _211
REMARK   94  A    between atoms: _211  and  _212
REMARK   95  A    between atoms: _212  and  _213
REMARK   96  A    between atoms: _215  and  _217
REMARK   97  A    between atoms: _217  and  _218
REMARK   98  A    between atoms: _217  and  _220
REMARK   99  A    between atoms: _220  and  _221
REMARK  100  A    between atoms: _224  and  _226
REMARK  101  A    between atoms: _226  and  _227
REMARK  102  A    between atoms: _226  and  _229
REMARK  103  A    between atoms: _229  and  _230
REMARK  104  A    between atoms: _230  and  _231
REMARK  105  A    between atoms: _231  and  _232
REMARK  106  A    between atoms: _232  and  _233
REMARK  107  A    between atoms: _237  and  _239
REMARK  108  A    between atoms: _239  and  _240
REMARK  109  A    between atoms: _243  and  _245
REMARK  110  A    between atoms: _245  and  _246
REMARK  111  A    between atoms: _245  and  _248
REMARK  112  A    between atoms: _248  and  _249
REMARK  113  A    between atoms: _252  and  _254
REMARK  114  A    between atoms: _254  and  _255
REMARK  115  A    between atoms: _254  and  _257
REMARK  116  A    between atoms: _257  and  _258
REMARK  117  A    between atoms: _261  and  _263
REMARK  118  A    between atoms: _263  and  _264
REMARK  119  A    between atoms: _263  and  _266
REMARK  120  A    between atoms: _266  and  _267
REMARK  121  A    between atoms: _270  and  _272
REMARK  122  A    between atoms: _272  and  _273
REMARK  123  A    between atoms: _272  and  _275
REMARK  124  A    between atoms: _275  and  _276
REMARK  125  A    between atoms: _281  and  _283
REMARK  126  A    between atoms: _283  and  _284
REMARK  127  A    between atoms: _283  and  _286
REMARK  128  A    between atoms: _286  and  _287
REMARK  129  A    between atoms: _292  and  _294
REMARK  130  A    between atoms: _294  and  _295
REMARK  131  A    between atoms: _294  and  _297
REMARK  132  A    between atoms: _297  and  _298
REMARK  133  A    between atoms: _301  and  _303
REMARK  134  A    between atoms: _303  and  _304
REMARK  135  A    between atoms: _306  and  _308
REMARK  136  A    between atoms: _308  and  _309
REMARK  137  A    between atoms: _308  and  _311
REMARK  138  A    between atoms: _311  and  _312
REMARK  139  A    between atoms: _315  and  _317
REMARK  140  A    between atoms: _317  and  _318
REMARK  141  A    between atoms: _317  and  _320
REMARK  142  A    between atoms: _320  and  _321
REMARK  143  A    between atoms: _324  and  _326
REMARK  144  A    between atoms: _326  and  _327
REMARK  145  A    between atoms: _330  and  _332
REMARK  146  A    between atoms: _332  and  _333
REMARK  147  A    between atoms: _332  and  _335
REMARK  148  A    between atoms: _335  and  _336
REMARK  149  A    between atoms: _336  and  _337
REMARK  150  A    between atoms: _337  and  _338
REMARK  151  A    between atoms: _338  and  _339
REMARK  152  A    between atoms: _343  and  _345
REMARK  153  A    between atoms: _345  and  _346
REMARK  154  A    between atoms: _348  and  _350
REMARK  155  A    between atoms: _350  and  _351
REMARK  156  A    between atoms: _350  and  _353
REMARK  157  A    between atoms: _353  and  _354
REMARK  158  A    between atoms: _357  and  _359
REMARK  159  A    between atoms: _359  and  _360
REMARK  160  A    between atoms: _362  and  _364
REMARK  161  A    between atoms: _364  and  _365
REMARK  162  A    between atoms: _364  and  _367
REMARK  163  A    between atoms: _367  and  _368
REMARK  164  A    between atoms: _374  and  _376
REMARK  165  A    between atoms: _376  and  _377
REMARK  166  A    between atoms: _379  and  _381
REMARK  167  A    between atoms: _381  and  _382
REMARK  168  A    between atoms: _381  and  _384
REMARK  169  A    between atoms: _387  and  _389
REMARK  170  A    between atoms: _389  and  _390
REMARK  171  A    between atoms: _392  and  _394
REMARK  172  A    between atoms: _394  and  _395
REMARK  173  A    between atoms: _394  and  _397
REMARK  174  A    between atoms: _397  and  _398
REMARK  175  A    between atoms: _404  and  _406
REMARK  176  A    between atoms: _406  and  _407
REMARK  177  A    between atoms: _406  and  _409
REMARK  178  A    between atoms: _409  and  _410
REMARK  179  A    between atoms: _415  and  _416
REMARK  180  A    between atoms: _418  and  _420
REMARK  181  A    between atoms: _420  and  _421
REMARK  182  A    between atoms: _420  and  _423
REMARK  183  A    between atoms: _423  and  _424
REMARK  184  A    between atoms: _429  and  _430
REMARK  185  A    between atoms: _432  and  _434
REMARK  186  A    between atoms: _434  and  _435
REMARK  187  A    between atoms: _434  and  _437
REMARK  188  A    between atoms: _440  and  _442
REMARK  189  A    between atoms: _442  and  _443
REMARK  190  A    between atoms: _442  and  _445
REMARK  191  A    between atoms: _445  and  _446
REMARK  192  A    between atoms: _449  and  _451
REMARK  193  A    between atoms: _451  and  _452
REMARK  194  A    between atoms: _451  and  _454
REMARK  195  A    between atoms: _457  and  _459
REMARK  196  A    between atoms: _459  and  _460
REMARK  197  A    between atoms: _459  and  _462
REMARK  198  A    between atoms: _462  and  _463
REMARK  199  A    between atoms: _466  and  _468
REMARK  200  A    between atoms: _468  and  _469
REMARK  201  A    between atoms: _468  and  _471
REMARK  202  A    between atoms: _471  and  _472
REMARK  203  A    between atoms: _475  and  _477
REMARK  204  A    between atoms: _477  and  _478
REMARK  205  A    between atoms: _477  and  _480
REMARK  206  A    between atoms: _480  and  _481
REMARK  207  A    between atoms: _481  and  _482
REMARK  208  A    between atoms: _482  and  _483
REMARK  209  A    between atoms: _483  and  _484
REMARK  210  A    between atoms: _488  and  _490
REMARK  211  A    between atoms: _490  and  _491
REMARK  212  A    between atoms: _490  and  _493
REMARK  213  A    between atoms: _493  and  _494
REMARK  214  A    between atoms: _504  and  _506
REMARK  215  A    between atoms: _506  and  _507
REMARK  216  A    between atoms: _506  and  _509
REMARK  217  A    between atoms: _509  and  _510
REMARK  218  A    between atoms: _510  and  _511
REMARK  219  A    between atoms: _514  and  _516
REMARK  220  A    between atoms: _516  and  _517
REMARK  221  A    between atoms: _516  and  _519
REMARK  222  A    between atoms: _519  and  _520
REMARK  223  A    between atoms: _522  and  _524
REMARK  224  A    between atoms: _524  and  _525
REMARK  225  A    between atoms: _524  and  _527
REMARK  226  A    between atoms: _527  and  _528
REMARK  227  A    between atoms: _534  and  _536
REMARK  228  A    between atoms: _536  and  _537
REMARK  229  A    between atoms: _536  and  _539
REMARK  230  A    between atoms: _539  and  _540
REMARK  231  A    between atoms: _543  and  _545
REMARK  232  A    between atoms: _545  and  _546
REMARK  233  A    between atoms: _545  and  _548
REMARK  234  A    between atoms: _551  and  _553
REMARK  235  A    between atoms: _553  and  _554
REMARK  236  A    between atoms: _556  and  _558
REMARK  237  A    between atoms: _558  and  _559
REMARK  238  A    between atoms: _558  and  _561
REMARK  239  A    between atoms: _561  and  _562
REMARK  240  A    between atoms: _565  and  _567
REMARK  241  A    between atoms: _567  and  _568
REMARK  242  A    between atoms: _567  and  _570
REMARK  243  A    between atoms: _570  and  _571
REMARK  244  A    between atoms: _571  and  _572
REMARK  245  A    between atoms: _572  and  _573
REMARK  246  A    between atoms: _573  and  _574
REMARK  247  A    between atoms: _578  and  _580
REMARK  248  A    between atoms: _580  and  _581
REMARK  249  A    between atoms: _580  and  _583
REMARK                            x       y       z     vdW  Elec       q    Type
REMARK                         _______ _______ _______ _____ _____    ______ ____
ROOT
ATOM      1  O   HOH     1      -1.975  -3.470 -18.369  0.00  0.00    +0.000 OA
ENDROOT
TORSDOF 0
REMARK  Name = ../refined-set-2016/4o07/4o07_pocket.pdb
REMARK  249 active torsions:
REMARK  status: ('A' for Active; 'I' for Inactive)
REMARK    1  A    between atoms: _1  and  _3
REMARK    2  A    between atoms: _3  and  _4
REMARK    3  A    between atoms: _3  and  _6
REMARK    4  A    between atoms: _6  and  _7
REMARK    5  A    between atoms: _13  and  _15
REMARK    6  A    between atoms: _15  and  _16
REMARK    7  A    between atoms: _15  and  _18
REMARK    8  A    between atoms: _18  and  _19
REMARK    9  A    between atoms: _19  and  _20
REMARK   10  A    between atoms: _25  and  _27
REMARK   11  A    between atoms: _27  and  _28
REMARK   12  A    between atoms: _27  and  _30
REMARK   13  A    between atoms: _30  and  _31
REMARK   14  A    between atoms: _34  and  _36
REMARK   15  A    between atoms: _36  and  _37
REMARK   16  A    between atoms: _36  and  _39
REMARK   17  A    between atoms: _39  and  _40
REMARK   18  A    between atoms: _40  and  _41
REMARK   19  A    between atoms: _44  and  _46
REMARK   20  A    between atoms: _46  and  _47
REMARK   21  A    between atoms: _46  and  _49
REMARK   22  A    between atoms: _49  and  _50
REMARK   23  A    between atoms: _53  and  _55
REMARK   24  A    between atoms: _55  and  _56
REMARK   25  A    between atoms: _55  and  _58
REMARK   26  A    between atoms: _58  and  _59
REMARK   27  A    between atoms: _62  and  _64
REMARK   28  A    between atoms: _64  and  _65
REMARK   29  A    between atoms: _64  and  _67
REMARK   30  A    between atoms: _67  and  _68
REMARK   31  A    between atoms: _70  and  _72
REMARK   32  A    between atoms: _72  and  _73
REMARK   33  A    between atoms: _72  and  _75
REMARK   34  A    between atoms: _75  and  _76
REMARK   35  A    between atoms: _81  and  _83
REMARK   36  A    between atoms: _83  and  _84
REMARK   37  A    between atoms: _83  and  _86
REMARK   38  A    between atoms: _86  and  _87
REMARK   39  A    between atoms: _89  and  _91
REMARK   40  A    between atoms: _91  and  _92
REMARK   41  A    between atoms: _91  and  _94
REMARK   42  A    between atoms: _94  and  _95
REMARK   43  A    between atoms: _97  and  _99
REMARK   44  A    between atoms: _99  and  _100
REMARK   45  A    between atoms: _99  and  _102
REMARK   46  A    between atoms: _102  and  _103
REMARK   47  A    between atoms: _106  and  _108
REMARK   48  A    between atoms: _108  and  _109
REMARK   49  A    between atoms: _112  and  _114
REMARK   50  A    between atoms: _114  and  _115
REMARK   51  A    between atoms: _114  and  _117
REMARK   52  A    between atoms: _117  and  _118
REMARK   53  A    between atoms: _121  and  _123
REMARK   54  A    between atoms: _123  and  _124
REMARK   55  A    between atoms: _123  and  _126
REMARK   56  A    between atoms: _126  and  _127
REMARK   57  A    between atoms: _130  and  _132
REMARK   58  A    between atoms: _132  and  _133
REMARK   59  A    between atoms: _132  and  _135
REMARK   60  A    between atoms: _135  and  _136
REMARK   61  A    between atoms: _136  and  _137
REMARK   62  A    between atoms: _137  and  _138
REMARK   63  A    between atoms: _138  and  _139
REMARK   64  A    between atoms: _143  and  _145
REMARK   65  A    between atoms: _145  and  _146
REMARK   66  A    between atoms: _145  and  _148
REMARK   67  A    between atoms: _148  and  _149
REMARK   68  A    between atoms: _152  and  _154
REMARK   69  A    between atoms: _154  and  _155
REMARK   70  A    between atoms: _154  and  _157
REMARK   71  A    between atoms: _157  and  _158
REMARK   72  A    between atoms: _161  and  _163
REMARK   73  A    between atoms: _163  and  _164
REMARK   74  A    between atoms: _163  and  _166
REMARK   75  A    between atoms: _169  and  _171
REMARK   76  A    between atoms: _171  and  _172
REMARK   77  A    between atoms: _171  and  _174
REMARK   78  A    between atoms: _174  and  _175
REMARK   79  A    between atoms: _178  and  _180
REMARK   80  A    between atoms: _180  and  _181
REMARK   81  A    between atoms: _180  and  _183
REMARK   82  A    between atoms: _183  and  _184
REMARK   83  A    between atoms: _187  and  _189
REMARK   84  A    between atoms: _189  and  _190
REMARK   85  A    between atoms: _192  and  _194
REMARK   86  A    between atoms: _194  and  _195
REMARK   87  A    between atoms: _194  and  _197
REMARK   88  A    between atoms: _197  and  _198
REMARK   89  A    between atoms: _201  and  _203
REMARK   90  A    between atoms: _203  and  _204
REMARK   91  A    between atoms: _206  and  _208
REMARK   92  A    between atoms: _208  and  _209
REMARK   93  A    between atoms: _208  and  _211
REMARK   94  A    between atoms: _211  and  _212
REMARK   95  A    between atoms: _212  and  _213
REMARK   96  A    between atoms: _215  and  _217
REMARK   97  A    between atoms: _217  and  _218
REMARK   98  A    between atoms: _217  and  _220
REMARK   99  A    between atoms: _220  and  _221
REMARK  100  A    between atoms: _224  and  _226
REMARK  101  A    between atoms: _226  and  _227
REMARK  102  A    between atoms: _226  and  _229
REMARK  103  A    between atoms: _229  and  _230
REMARK  104  A    between atoms: _230  and  _231
REMARK  105  A    between atoms: _231  and  _232
REMARK  106  A    between atoms: _232  and  _233
REMARK  107  A    between atoms: _237  and  _239
REMARK  108  A    between atoms: _239  and  _240
REMARK  109  A    between atoms: _243  and  _245
REMARK  110  A    between atoms: _245  and  _246
REMARK  111  A    between atoms: _245  and  _248
REMARK  112  A    between atoms: _248  and  _249
REMARK  113  A    between atoms: _252  and  _254
REMARK  114  A    between atoms: _254  and  _255
REMARK  115  A    between atoms: _254  and  _257
REMARK  116  A    between atoms: _257  and  _258
REMARK  117  A    between atoms: _261  and  _263
REMARK  118  A    between atoms: _263  and  _264
REMARK  119  A    between atoms: _263  and  _266
REMARK  120  A    between atoms: _266  and  _267
REMARK  121  A    between atoms: _270  and  _272
REMARK  122  A    between atoms: _272  and  _273
REMARK  123  A    between atoms: _272  and  _275
REMARK  124  A    between atoms: _275  and  _276
REMARK  125  A    between atoms: _281  and  _283
REMARK  126  A    between atoms: _283  and  _284
REMARK  127  A    between atoms: _283  and  _286
REMARK  128  A    between atoms: _286  and  _287
REMARK  129  A    between atoms: _292  and  _294
REMARK  130  A    between atoms: _294  and  _295
REMARK  131  A    between atoms: _294  and  _297
REMARK  132  A    between atoms: _297  and  _298
REMARK  133  A    between atoms: _301  and  _303
REMARK  134  A    between atoms: _303  and  _304
REMARK  135  A    between atoms: _306  and  _308
REMARK  136  A    between atoms: _308  and  _309
REMARK  137  A    between atoms: _308  and  _311
REMARK  138  A    between atoms: _311  and  _312
REMARK  139  A    between atoms: _315  and  _317
REMARK  140  A    between atoms: _317  and  _318
REMARK  141  A    between atoms: _317  and  _320
REMARK  142  A    between atoms: _320  and  _321
REMARK  143  A    between atoms: _324  and  _326
REMARK  144  A    between atoms: _326  and  _327
REMARK  145  A    between atoms: _330  and  _332
REMARK  146  A    between atoms: _332  and  _333
REMARK  147  A    between atoms: _332  and  _335
REMARK  148  A    between atoms: _335  and  _336
REMARK  149  A    between atoms: _336  and  _337
REMARK  150  A    between atoms: _337  and  _338
REMARK  151  A    between atoms: _338  and  _339
REMARK  152  A    between atoms: _343  and  _345
REMARK  153  A    between atoms: _345  and  _346
REMARK  154  A    between atoms: _348  and  _350
REMARK  155  A    between atoms: _350  and  _351
REMARK  156  A    between atoms: _350  and  _353
REMARK  157  A    between atoms: _353  and  _354
REMARK  158  A    between atoms: _357  and  _359
REMARK  159  A    between atoms: _359  and  _360
REMARK  160  A    between atoms: _362  and  _364
REMARK  161  A    between atoms: _364  and  _365
REMARK  162  A    between atoms: _364  and  _367
REMARK  163  A    between atoms: _367  and  _368
REMARK  164  A    between atoms: _374  and  _376
REMARK  165  A    between atoms: _376  and  _377
REMARK  166  A    between atoms: _379  and  _381
REMARK  167  A    between atoms: _381  and  _382
REMARK  168  A    between atoms: _381  and  _384
REMARK  169  A    between atoms: _387  and  _389
REMARK  170  A    between atoms: _389  and  _390
REMARK  171  A    between atoms: _392  and  _394
REMARK  172  A    between atoms: _394  and  _395
REMARK  173  A    between atoms: _394  and  _397
REMARK  174  A    between atoms: _397  and  _398
REMARK  175  A    between atoms: _404  and  _406
REMARK  176  A    between atoms: _406  and  _407
REMARK  177  A    between atoms: _406  and  _409
REMARK  178  A    between atoms: _409  and  _410
REMARK  179  A    between atoms: _415  and  _416
REMARK  180  A    between atoms: _418  and  _420
REMARK  181  A    between atoms: _420  and  _421
REMARK  182  A    between atoms: _420  and  _423
REMARK  183  A    between atoms: _423  and  _424
REMARK  184  A    between atoms: _429  and  _430
REMARK  185  A    between atoms: _432  and  _434
REMARK  186  A    between atoms: _434  and  _435
REMARK  187  A    between atoms: _434  and  _437
REMARK  188  A    between atoms: _440  and  _442
REMARK  189  A    between atoms: _442  and  _443
REMARK  190  A    between atoms: _442  and  _445
REMARK  191  A    between atoms: _445  and  _446
REMARK  192  A    between atoms: _449  and  _451
REMARK  193  A    between atoms: _451  and  _452
REMARK  194  A    between atoms: _451  and  _454
REMARK  195  A    between atoms: _457  and  _459
REMARK  196  A    between atoms: _459  and  _460
REMARK  197  A    between atoms: _459  and  _462
REMARK  198  A    between atoms: _462  and  _463
REMARK  199  A    between atoms: _466  and  _468
REMARK  200  A    between atoms: _468  and  _469
REMARK  201  A    between atoms: _468  and  _471
REMARK  202  A    between atoms: _471  and  _472
REMARK  203  A    between atoms: _475  and  _477
REMARK  204  A    between atoms: _477  and  _478
REMARK  205  A    between atoms: _477  and  _480
REMARK  206  A    between atoms: _480  and  _481
REMARK  207  A    between atoms: _481  and  _482
REMARK  208  A    between atoms: _482  and  _483
REMARK  209  A    between atoms: _483  and  _484
REMARK  210  A    between atoms: _488  and  _490
REMARK  211  A    between atoms: _490  and  _491
REMARK  212  A    between atoms: _490  and  _493
REMARK  213  A    between atoms: _493  and  _494
REMARK  214  A    between atoms: _504  and  _506
REMARK  215  A    between atoms: _506  and  _507
REMARK  216  A    between atoms: _506  and  _509
REMARK  217  A    between atoms: _509  and  _510
REMARK  218  A    between atoms: _510  and  _511
REMARK  219  A    between atoms: _514  and  _516
REMARK  220  A    between atoms: _516  and  _517
REMARK  221  A    between atoms: _516  and  _519
REMARK  222  A    between atoms: _519  and  _520
REMARK  223  A    between atoms: _522  and  _524
REMARK  224  A    between atoms: _524  and  _525
REMARK  225  A    between atoms: _524  and  _527
REMARK  226  A    between atoms: _527  and  _528
REMARK  227  A    between atoms: _534  and  _536
REMARK  228  A    between atoms: _536  and  _537
REMARK  229  A    between atoms: _536  and  _539
REMARK  230  A    between atoms: _539  and  _540
REMARK  231  A    between atoms: _543  and  _545
REMARK  232  A    between atoms: _545  and  _546
REMARK  233  A    between atoms: _545  and  _548
REMARK  234  A    between atoms: _551  and  _553
REMARK  235  A    between atoms: _553  and  _554
REMARK  236  A    between atoms: _556  and  _558
REMARK  237  A    between atoms: _558  and  _559
REMARK  238  A    between atoms: _558  and  _561
REMARK  239  A    between atoms: _561  and  _562
REMARK  240  A    between atoms: _565  and  _567
REMARK  241  A    between atoms: _567  and  _568
REMARK  242  A    between atoms: _567  and  _570
REMARK  243  A    between atoms: _570  and  _571
REMARK  244  A    between atoms: _571  and  _572
REMARK  245  A    between atoms: _572  and  _573
REMARK  246  A    between atoms: _573  and  _574
REMARK  247  A    between atoms: _578  and  _580
REMARK  248  A    between atoms: _580  and  _581
REMARK  249  A    between atoms: _580  and  _583
REMARK                            x       y       z     vdW  Elec       q    Type
REMARK                         _______ _______ _______ _____ _____    ______ ____
ROOT
ATOM      1  O   HOH     1      11.315  -3.027 -21.416  0.00  0.00    +0.000 OA
ENDROOT
TORSDOF 0
REMARK  Name = ../refined-set-2016/4o07/4o07_pocket.pdb
REMARK  249 active torsions:
REMARK  status: ('A' for Active; 'I' for Inactive)
REMARK    1  A    between atoms: _1  and  _3
REMARK    2  A    between atoms: _3  and  _4
REMARK    3  A    between atoms: _3  and  _6
REMARK    4  A    between atoms: _6  and  _7
REMARK    5  A    between atoms: _13  and  _15
REMARK    6  A    between atoms: _15  and  _16
REMARK    7  A    between atoms: _15  and  _18
REMARK    8  A    between atoms: _18  and  _19
REMARK    9  A    between atoms: _19  and  _20
REMARK   10  A    between atoms: _25  and  _27
REMARK   11  A    between atoms: _27  and  _28
REMARK   12  A    between atoms: _27  and  _30
REMARK   13  A    between atoms: _30  and  _31
REMARK   14  A    between atoms: _34  and  _36
REMARK   15  A    between atoms: _36  and  _37
REMARK   16  A    between atoms: _36  and  _39
REMARK   17  A    between atoms: _39  and  _40
REMARK   18  A    between atoms: _40  and  _41
REMARK   19  A    between atoms: _44  and  _46
REMARK   20  A    between atoms: _46  and  _47
REMARK   21  A    between atoms: _46  and  _49
REMARK   22  A    between atoms: _49  and  _50
REMARK   23  A    between atoms: _53  and  _55
REMARK   24  A    between atoms: _55  and  _56
REMARK   25  A    between atoms: _55  and  _58
REMARK   26  A    between atoms: _58  and  _59
REMARK   27  A    between atoms: _62  and  _64
REMARK   28  A    between atoms: _64  and  _65
REMARK   29  A    between atoms: _64  and  _67
REMARK   30  A    between atoms: _67  and  _68
REMARK   31  A    between atoms: _70  and  _72
REMARK   32  A    between atoms: _72  and  _73
REMARK   33  A    between atoms: _72  and  _75
REMARK   34  A    between atoms: _75  and  _76
REMARK   35  A    between atoms: _81  and  _83
REMARK   36  A    between atoms: _83  and  _84
REMARK   37  A    between atoms: _83  and  _86
REMARK   38  A    between atoms: _86  and  _87
REMARK   39  A    between atoms: _89  and  _91
REMARK   40  A    between atoms: _91  and  _92
REMARK   41  A    between atoms: _91  and  _94
REMARK   42  A    between atoms: _94  and  _95
REMARK   43  A    between atoms: _97  and  _99
REMARK   44  A    between atoms: _99  and  _100
REMARK   45  A    between atoms: _99  and  _102
REMARK   46  A    between atoms: _102  and  _103
REMARK   47  A    between atoms: _106  and  _108
REMARK   48  A    between atoms: _108  and  _109
REMARK   49  A    between atoms: _112  and  _114
REMARK   50  A    between atoms: _114  and  _115
REMARK   51  A    between atoms: _114  and  _117
REMARK   52  A    between atoms: _117  and  _118
REMARK   53  A    between atoms: _121  and  _123
REMARK   54  A    between atoms: _123  and  _124
REMARK   55  A    between atoms: _123  and  _126
REMARK   56  A    between atoms: _126  and  _127
REMARK   57  A    between atoms: _130  and  _132
REMARK   58  A    between atoms: _132  and  _133
REMARK   59  A    between atoms: _132  and  _135
REMARK   60  A    between atoms: _135  and  _136
REMARK   61  A    between atoms: _136  and  _137
REMARK   62  A    between atoms: _137  and  _138
REMARK   63  A    between atoms: _138  and  _139
REMARK   64  A    between atoms: _143  and  _145
REMARK   65  A    between atoms: _145  and  _146
REMARK   66  A    between atoms: _145  and  _148
REMARK   67  A    between atoms: _148  and  _149
REMARK   68  A    between atoms: _152  and  _154
REMARK   69  A    between atoms: _154  and  _155
REMARK   70  A    between atoms: _154  and  _157
REMARK   71  A    between atoms: _157  and  _158
REMARK   72  A    between atoms: _161  and  _163
REMARK   73  A    between atoms: _163  and  _164
REMARK   74  A    between atoms: _163  and  _166
REMARK   75  A    between atoms: _169  and  _171
REMARK   76  A    between atoms: _171  and  _172
REMARK   77  A    between atoms: _171  and  _174
REMARK   78  A    between atoms: _174  and  _175
REMARK   79  A    between atoms: _178  and  _180
REMARK   80  A    between atoms: _180  and  _181
REMARK   81  A    between atoms: _180  and  _183
REMARK   82  A    between atoms: _183  and  _184
REMARK   83  A    between atoms: _187  and  _189
REMARK   84  A    between atoms: _189  and  _190
REMARK   85  A    between atoms: _192  and  _194
REMARK   86  A    between atoms: _194  and  _195
REMARK   87  A    between atoms: _194  and  _197
REMARK   88  A    between atoms: _197  and  _198
REMARK   89  A    between atoms: _201  and  _203
REMARK   90  A    between atoms: _203  and  _204
REMARK   91  A    between atoms: _206  and  _208
REMARK   92  A    between atoms: _208  and  _209
REMARK   93  A    between atoms: _208  and  _211
REMARK   94  A    between atoms: _211  and  _212
REMARK   95  A    between atoms: _212  and  _213
REMARK   96  A    between atoms: _215  and  _217
REMARK   97  A    between atoms: _217  and  _218
REMARK   98  A    between atoms: _217  and  _220
REMARK   99  A    between atoms: _220  and  _221
REMARK  100  A    between atoms: _224  and  _226
REMARK  101  A    between atoms: _226  and  _227
REMARK  102  A    between atoms: _226  and  _229
REMARK  103  A    between atoms: _229  and  _230
REMARK  104  A    between atoms: _230  and  _231
REMARK  105  A    between atoms: _231  and  _232
REMARK  106  A    between atoms: _232  and  _233
REMARK  107  A    between atoms: _237  and  _239
REMARK  108  A    between atoms: _239  and  _240
REMARK  109  A    between atoms: _243  and  _245
REMARK  110  A    between atoms: _245  and  _246
REMARK  111  A    between atoms: _245  and  _248
REMARK  112  A    between atoms: _248  and  _249
REMARK  113  A    between atoms: _252  and  _254
REMARK  114  A    between atoms: _254  and  _255
REMARK  115  A    between atoms: _254  and  _257
REMARK  116  A    between atoms: _257  and  _258
REMARK  117  A    between atoms: _261  and  _263
REMARK  118  A    between atoms: _263  and  _264
REMARK  119  A    between atoms: _263  and  _266
REMARK  120  A    between atoms: _266  and  _267
REMARK  121  A    between atoms: _270  and  _272
REMARK  122  A    between atoms: _272  and  _273
REMARK  123  A    between atoms: _272  and  _275
REMARK  124  A    between atoms: _275  and  _276
REMARK  125  A    between atoms: _281  and  _283
REMARK  126  A    between atoms: _283  and  _284
REMARK  127  A    between atoms: _283  and  _286
REMARK  128  A    between atoms: _286  and  _287
REMARK  129  A    between atoms: _292  and  _294
REMARK  130  A    between atoms: _294  and  _295
REMARK  131  A    between atoms: _294  and  _297
REMARK  132  A    between atoms: _297  and  _298
REMARK  133  A    between atoms: _301  and  _303
REMARK  134  A    between atoms: _303  and  _304
REMARK  135  A    between atoms: _306  and  _308
REMARK  136  A    between atoms: _308  and  _309
REMARK  137  A    between atoms: _308  and  _311
REMARK  138  A    between atoms: _311  and  _312
REMARK  139  A    between atoms: _315  and  _317
REMARK  140  A    between atoms: _317  and  _318
REMARK  141  A    between atoms: _317  and  _320
REMARK  142  A    between atoms: _320  and  _321
REMARK  143  A    between atoms: _324  and  _326
REMARK  144  A    between atoms: _326  and  _327
REMARK  145  A    between atoms: _330  and  _332
REMARK  146  A    between atoms: _332  and  _333
REMARK  147  A    between atoms: _332  and  _335
REMARK  148  A    between atoms: _335  and  _336
REMARK  149  A    between atoms: _336  and  _337
REMARK  150  A    between atoms: _337  and  _338
REMARK  151  A    between atoms: _338  and  _339
REMARK  152  A    between atoms: _343  and  _345
REMARK  153  A    between atoms: _345  and  _346
REMARK  154  A    between atoms: _348  and  _350
REMARK  155  A    between atoms: _350  and  _351
REMARK  156  A    between atoms: _350  and  _353
REMARK  157  A    between atoms: _353  and  _354
REMARK  158  A    between atoms: _357  and  _359
REMARK  159  A    between atoms: _359  and  _360
REMARK  160  A    between atoms: _362  and  _364
REMARK  161  A    between atoms: _364  and  _365
REMARK  162  A    between atoms: _364  and  _367
REMARK  163  A    between atoms: _367  and  _368
REMARK  164  A    between atoms: _374  and  _376
REMARK  165  A    between atoms: _376  and  _377
REMARK  166  A    between atoms: _379  and  _381
REMARK  167  A    between atoms: _381  and  _382
REMARK  168  A    between atoms: _381  and  _384
REMARK  169  A    between atoms: _387  and  _389
REMARK  170  A    between atoms: _389  and  _390
REMARK  171  A    between atoms: _392  and  _394
REMARK  172  A    between atoms: _394  and  _395
REMARK  173  A    between atoms: _394  and  _397
REMARK  174  A    between atoms: _397  and  _398
REMARK  175  A    between atoms: _404  and  _406
REMARK  176  A    between atoms: _406  and  _407
REMARK  177  A    between atoms: _406  and  _409
REMARK  178  A    between atoms: _409  and  _410
REMARK  179  A    between atoms: _415  and  _416
REMARK  180  A    between atoms: _418  and  _420
REMARK  181  A    between atoms: _420  and  _421
REMARK  182  A    between atoms: _420  and  _423
REMARK  183  A    between atoms: _423  and  _424
REMARK  184  A    between atoms: _429  and  _430
REMARK  185  A    between atoms: _432  and  _434
REMARK  186  A    between atoms: _434  and  _435
REMARK  187  A    between atoms: _434  and  _437
REMARK  188  A    between atoms: _440  and  _442
REMARK  189  A    between atoms: _442  and  _443
REMARK  190  A    between atoms: _442  and  _445
REMARK  191  A    between atoms: _445  and  _446
REMARK  192  A    between atoms: _449  and  _451
REMARK  193  A    between atoms: _451  and  _452
REMARK  194  A    between atoms: _451  and  _454
REMARK  195  A    between atoms: _457  and  _459
REMARK  196  A    between atoms: _459  and  _460
REMARK  197  A    between atoms: _459  and  _462
REMARK  198  A    between atoms: _462  and  _463
REMARK  199  A    between atoms: _466  and  _468
REMARK  200  A    between atoms: _468  and  _469
REMARK  201  A    between atoms: _468  and  _471
REMARK  202  A    between atoms: _471  and  _472
REMARK  203  A    between atoms: _475  and  _477
REMARK  204  A    between atoms: _477  and  _478
REMARK  205  A    between atoms: _477  and  _480
REMARK  206  A    between atoms: _480  and  _481
REMARK  207  A    between atoms: _481  and  _482
REMARK  208  A    between atoms: _482  and  _483
REMARK  209  A    between atoms: _483  and  _484
REMARK  210  A    between atoms: _488  and  _490
REMARK  211  A    between atoms: _490  and  _491
REMARK  212  A    between atoms: _490  and  _493
REMARK  213  A    between atoms: _493  and  _494
REMARK  214  A    between atoms: _504  and  _506
REMARK  215  A    between atoms: _506  and  _507
REMARK  216  A    between atoms: _506  and  _509
REMARK  217  A    between atoms: _509  and  _510
REMARK  218  A    between atoms: _510  and  _511
REMARK  219  A    between atoms: _514  and  _516
REMARK  220  A    between atoms: _516  and  _517
REMARK  221  A    between atoms: _516  and  _519
REMARK  222  A    between atoms: _519  and  _520
REMARK  223  A    between atoms: _522  and  _524
REMARK  224  A    between atoms: _524  and  _525
REMARK  225  A    between atoms: _524  and  _527
REMARK  226  A    between atoms: _527  and  _528
REMARK  227  A    between atoms: _534  and  _536
REMARK  228  A    between atoms: _536  and  _537
REMARK  229  A    between atoms: _536  and  _539
REMARK  230  A    between atoms: _539  and  _540
REMARK  231  A    between atoms: _543  and  _545
REMARK  232  A    between atoms: _545  and  _546
REMARK  233  A    between atoms: _545  and  _548
REMARK  234  A    between atoms: _551  and  _553
REMARK  235  A    between atoms: _553  and  _554
REMARK  236  A    between atoms: _556  and  _558
REMARK  237  A    between atoms: _558  and  _559
REMARK  238  A    between atoms: _558  and  _561
REMARK  239  A    between atoms: _561  and  _562
REMARK  240  A    between atoms: _565  and  _567
REMARK  241  A    between atoms: _567  and  _568
REMARK  242  A    between atoms: _567  and  _570
REMARK  243  A    between atoms: _570  and  _571
REMARK  244  A    between atoms: _571  and  _572
REMARK  245  A    between atoms: _572  and  _573
REMARK  246  A    between atoms: _573  and  _574
REMARK  247  A    between atoms: _578  and  _580
REMARK  248  A    between atoms: _580  and  _581
REMARK  249  A    between atoms: _580  and  _583
REMARK                            x       y       z     vdW  Elec       q    Type
REMARK                         _______ _______ _______ _____ _____    ______ ____
ROOT
ATOM      1  O   HOH     1       4.245  -3.106 -21.486  0.00  0.00    +0.000 OA
ENDROOT
TORSDOF 0
