REMARK  Name = ../refined-set-2016/2clh/2clh_pocket.pdb
REMARK  222 active torsions:
REMARK  status: ('A' for Active; 'I' for Inactive)
REMARK    1  A    between atoms: _1  and  _3
REMARK    2  A    between atoms: _3  and  _4
REMARK    3  A    between atoms: _3  and  _6
REMARK    4  A    between atoms: _10  and  _11
REMARK    5  A    between atoms: _16  and  _18
REMARK    6  A    between atoms: _18  and  _19
REMARK    7  A    between atoms: _18  and  _21
REMARK    8  A    between atoms: _21  and  _22
REMARK    9  A    between atoms: _28  and  _30
REMARK   10  A    between atoms: _30  and  _31
REMARK   11  A    between atoms: _30  and  _33
REMARK   12  A    between atoms: _36  and  _38
REMARK   13  A    between atoms: _38  and  _39
REMARK   14  A    between atoms: _38  and  _41
REMARK   15  A    between atoms: _41  and  _42
REMARK   16  A    between atoms: _45  and  _47
REMARK   17  A    between atoms: _47  and  _48
REMARK   18  A    between atoms: _47  and  _50
REMARK   19  A    between atoms: _50  and  _51
REMARK   20  A    between atoms: _54  and  _56
REMARK   21  A    between atoms: _56  and  _57
REMARK   22  A    between atoms: _56  and  _59
REMARK   23  A    between atoms: _59  and  _60
REMARK   24  A    between atoms: _60  and  _61
REMARK   25  A    between atoms: _64  and  _66
REMARK   26  A    between atoms: _66  and  _67
REMARK   27  A    between atoms: _66  and  _69
REMARK   28  A    between atoms: _69  and  _70
REMARK   29  A    between atoms: _73  and  _75
REMARK   30  A    between atoms: _75  and  _76
REMARK   31  A    between atoms: _79  and  _80
REMARK   32  A    between atoms: _85  and  _87
REMARK   33  A    between atoms: _87  and  _88
REMARK   34  A    between atoms: _87  and  _90
REMARK   35  A    between atoms: _90  and  _91
REMARK   36  A    between atoms: _94  and  _96
REMARK   37  A    between atoms: _96  and  _97
REMARK   38  A    between atoms: _100  and  _102
REMARK   39  A    between atoms: _102  and  _103
REMARK   40  A    between atoms: _102  and  _105
REMARK   41  A    between atoms: _105  and  _106
REMARK   42  A    between atoms: _109  and  _111
REMARK   43  A    between atoms: _111  and  _112
REMARK   44  A    between atoms: _114  and  _116
REMARK   45  A    between atoms: _116  and  _117
REMARK   46  A    between atoms: _116  and  _119
REMARK   47  A    between atoms: _119  and  _120
REMARK   48  A    between atoms: _123  and  _125
REMARK   49  A    between atoms: _125  and  _126
REMARK   50  A    between atoms: _125  and  _128
REMARK   51  A    between atoms: _128  and  _129
REMARK   52  A    between atoms: _132  and  _134
REMARK   53  A    between atoms: _134  and  _135
REMARK   54  A    between atoms: _134  and  _137
REMARK   55  A    between atoms: _137  and  _138
REMARK   56  A    between atoms: _143  and  _145
REMARK   57  A    between atoms: _145  and  _146
REMARK   58  A    between atoms: _148  and  _150
REMARK   59  A    between atoms: _150  and  _151
REMARK   60  A    between atoms: _150  and  _153
REMARK   61  A    between atoms: _153  and  _154
REMARK   62  A    between atoms: _157  and  _159
REMARK   63  A    between atoms: _159  and  _160
REMARK   64  A    between atoms: _159  and  _162
REMARK   65  A    between atoms: _162  and  _163
REMARK   66  A    between atoms: _166  and  _168
REMARK   67  A    between atoms: _168  and  _169
REMARK   68  A    between atoms: _168  and  _171
REMARK   69  A    between atoms: _171  and  _172
REMARK   70  A    between atoms: _172  and  _173
REMARK   71  A    between atoms: _175  and  _177
REMARK   72  A    between atoms: _177  and  _178
REMARK   73  A    between atoms: _177  and  _180
REMARK   74  A    between atoms: _180  and  _181
REMARK   75  A    between atoms: _186  and  _187
REMARK   76  A    between atoms: _189  and  _191
REMARK   77  A    between atoms: _191  and  _192
REMARK   78  A    between atoms: _191  and  _194
REMARK   79  A    between atoms: _194  and  _195
REMARK   80  A    between atoms: _198  and  _200
REMARK   81  A    between atoms: _200  and  _201
REMARK   82  A    between atoms: _200  and  _203
REMARK   83  A    between atoms: _206  and  _208
REMARK   84  A    between atoms: _208  and  _209
REMARK   85  A    between atoms: _212  and  _214
REMARK   86  A    between atoms: _214  and  _215
REMARK   87  A    between atoms: _214  and  _217
REMARK   88  A    between atoms: _217  and  _218
REMARK   89  A    between atoms: _221  and  _223
REMARK   90  A    between atoms: _223  and  _224
REMARK   91  A    between atoms: _223  and  _226
REMARK   92  A    between atoms: _229  and  _231
REMARK   93  A    between atoms: _231  and  _232
REMARK   94  A    between atoms: _231  and  _234
REMARK   95  A    between atoms: _234  and  _235
REMARK   96  A    between atoms: _238  and  _240
REMARK   97  A    between atoms: _240  and  _241
REMARK   98  A    between atoms: _240  and  _243
REMARK   99  A    between atoms: _243  and  _244
REMARK  100  A    between atoms: _250  and  _252
REMARK  101  A    between atoms: _252  and  _253
REMARK  102  A    between atoms: _252  and  _255
REMARK  103  A    between atoms: _255  and  _256
REMARK  104  A    between atoms: _259  and  _261
REMARK  105  A    between atoms: _261  and  _262
REMARK  106  A    between atoms: _261  and  _264
REMARK  107  A    between atoms: _266  and  _268
REMARK  108  A    between atoms: _268  and  _269
REMARK  109  A    between atoms: _268  and  _271
REMARK  110  A    between atoms: _271  and  _272
REMARK  111  A    between atoms: _277  and  _278
REMARK  112  A    between atoms: _280  and  _282
REMARK  113  A    between atoms: _282  and  _283
REMARK  114  A    between atoms: _282  and  _285
REMARK  115  A    between atoms: _285  and  _286
REMARK  116  A    between atoms: _291  and  _292
REMARK  117  A    between atoms: _294  and  _296
REMARK  118  A    between atoms: _296  and  _297
REMARK  119  A    between atoms: _296  and  _299
REMARK  120  A    between atoms: _299  and  _300
REMARK  121  A    between atoms: _303  and  _305
REMARK  122  A    between atoms: _305  and  _306
REMARK  123  A    between atoms: _305  and  _308
REMARK  124  A    between atoms: _308  and  _309
REMARK  125  A    between atoms: _312  and  _314
REMARK  126  A    between atoms: _314  and  _315
REMARK  127  A    between atoms: _314  and  _317
REMARK  128  A    between atoms: _317  and  _318
REMARK  129  A    between atoms: _320  and  _322
REMARK  130  A    between atoms: _322  and  _323
REMARK  131  A    between atoms: _322  and  _325
REMARK  132  A    between atoms: _325  and  _326
REMARK  133  A    between atoms: _326  and  _327
REMARK  134  A    between atoms: _327  and  _328
REMARK  135  A    between atoms: _337  and  _339
REMARK  136  A    between atoms: _339  and  _340
REMARK  137  A    between atoms: _342  and  _344
REMARK  138  A    between atoms: _344  and  _345
REMARK  139  A    between atoms: _344  and  _347
REMARK  140  A    between atoms: _350  and  _352
REMARK  141  A    between atoms: _352  and  _353
REMARK  142  A    between atoms: _352  and  _355
REMARK  143  A    between atoms: _355  and  _356
REMARK  144  A    between atoms: _359  and  _361
REMARK  145  A    between atoms: _361  and  _362
REMARK  146  A    between atoms: _364  and  _366
REMARK  147  A    between atoms: _366  and  _367
REMARK  148  A    between atoms: _366  and  _369
REMARK  149  A    between atoms: _369  and  _370
REMARK  150  A    between atoms: _373  and  _375
REMARK  151  A    between atoms: _375  and  _376
REMARK  152  A    between atoms: _375  and  _378
REMARK  153  A    between atoms: _378  and  _379
REMARK  154  A    between atoms: _379  and  _380
REMARK  155  A    between atoms: _385  and  _387
REMARK  156  A    between atoms: _387  and  _388
REMARK  157  A    between atoms: _390  and  _392
REMARK  158  A    between atoms: _392  and  _393
REMARK  159  A    between atoms: _392  and  _395
REMARK  160  A    between atoms: _395  and  _396
REMARK  161  A    between atoms: _402  and  _404
REMARK  162  A    between atoms: _404  and  _405
REMARK  163  A    between atoms: _407  and  _409
REMARK  164  A    between atoms: _409  and  _410
REMARK  165  A    between atoms: _409  and  _412
REMARK  166  A    between atoms: _412  and  _413
REMARK  167  A    between atoms: _416  and  _418
REMARK  168  A    between atoms: _418  and  _419
REMARK  169  A    between atoms: _418  and  _421
REMARK  170  A    between atoms: _421  and  _422
REMARK  171  A    between atoms: _424  and  _426
REMARK  172  A    between atoms: _426  and  _427
REMARK  173  A    between atoms: _426  and  _429
REMARK  174  A    between atoms: _429  and  _430
REMARK  175  A    between atoms: _430  and  _431
REMARK  176  A    between atoms: _436  and  _438
REMARK  177  A    between atoms: _438  and  _439
REMARK  178  A    between atoms: _438  and  _441
REMARK  179  A    between atoms: _441  and  _442
REMARK  180  A    between atoms: _445  and  _447
REMARK  181  A    between atoms: _447  and  _448
REMARK  182  A    between atoms: _447  and  _450
REMARK  183  A    between atoms: _450  and  _451
REMARK  184  A    between atoms: _453  and  _455
REMARK  185  A    between atoms: _455  and  _456
REMARK  186  A    between atoms: _458  and  _460
REMARK  187  A    between atoms: _460  and  _461
REMARK  188  A    between atoms: _460  and  _463
REMARK  189  A    between atoms: _463  and  _464
REMARK  190  A    between atoms: _466  and  _468
REMARK  191  A    between atoms: _468  and  _469
REMARK  192  A    between atoms: _472  and  _474
REMARK  193  A    between atoms: _474  and  _475
REMARK  194  A    between atoms: _474  and  _477
REMARK  195  A    between atoms: _477  and  _478
REMARK  196  A    between atoms: _481  and  _483
REMARK  197  A    between atoms: _483  and  _484
REMARK  198  A    between atoms: _483  and  _486
REMARK  199  A    between atoms: _489  and  _491
REMARK  200  A    between atoms: _491  and  _492
REMARK  201  A    between atoms: _491  and  _494
REMARK  202  A    between atoms: _494  and  _495
REMARK  203  A    between atoms: _495  and  _496
REMARK  204  A    between atoms: _496  and  _497
REMARK  205  A    between atoms: _497  and  _498
REMARK  206  A    between atoms: _502  and  _504
REMARK  207  A    between atoms: _504  and  _505
REMARK  208  A    between atoms: _504  and  _507
REMARK  209  A    between atoms: _511  and  _512
REMARK  210  A    between atoms: _517  and  _519
REMARK  211  A    between atoms: _519  and  _520
REMARK  212  A    between atoms: _519  and  _522
REMARK  213  A    between atoms: _522  and  _523
REMARK  214  A    between atoms: _523  and  _524
REMARK  215  A    between atoms: _529  and  _531
REMARK  216  A    between atoms: _531  and  _532
REMARK  217  A    between atoms: _531  and  _534
REMARK  218  A    between atoms: _534  and  _535
REMARK  219  A    between atoms: _538  and  _540
REMARK  220  A    between atoms: _540  and  _541
REMARK  221  A    between atoms: _540  and  _543
REMARK  222  A    between atoms: _543  and  _544
REMARK                            x       y       z     vdW  Elec       q    Type
REMARK                         _______ _______ _______ _____ _____    ______ ____
ROOT
ATOM      1  CA  PHE A   3      46.243  32.635  16.883  0.00  0.00    +0.153 C 
ENDROOT
BRANCH   1   4
ATOM      2  C   PRO A   2      43.836  33.005  16.878  0.00  0.00    +0.241 C 
ATOM      3  O   PRO A   2      43.712  32.667  18.059  0.00  0.00    -0.273 OA
ATOM      4  N   PHE A   3      44.995  32.991  16.229  0.00  0.00    -0.297 N 
ATOM      5  H   PHE A   3      45.010  33.243  15.220  0.00  0.00    +0.150 HD
BRANCH   2  11
ATOM      6  C   VAL A   1      40.957  31.717  16.253  0.00  0.00    +0.241 C 
ATOM      7  N   PRO A   2      41.385  32.930  16.627  0.00  0.00    -0.272 N 
ATOM      8  CD  PRO A   2      40.670  33.977  17.379  0.00  0.00    +0.094 C 
ATOM      9  CG  PRO A   2      41.700  35.102  17.435  0.00  0.00    +0.024 C 
ATOM     10  CB  PRO A   2      42.424  34.960  16.143  0.00  0.00    +0.031 C 
ATOM     11  CA  PRO A   2      42.628  33.454  16.064  0.00  0.00    +0.152 C 
ATOM     12  O   VAL A   1      41.575  31.034  15.440  0.00  0.00    -0.273 OA
BRANCH   6  13
ATOM     13  CA  VAL A   1      39.663  31.212  16.874  0.00  0.00    +0.145 C 
BRANCH  13  14
ATOM     14  CB  VAL A   1      39.918  29.807  17.457  0.00  0.00    +0.025 C 
ATOM     15  CG2 VAL A   1      41.030  29.864  18.486  0.00  0.00    +0.002 C 
ATOM     16  CG1 VAL A   1      38.629  29.260  18.070  0.00  0.00    +0.002 C 
ENDBRANCH  13  14
BRANCH  13  17
ATOM     17  N   VAL A   1      38.553  31.170  15.937  0.00  0.00    -0.238 NA
ATOM     18  H   VAL A   1      38.624  30.569  15.091  0.00  0.00    +0.142 HD
ENDBRANCH  13  17
ENDBRANCH   6  13
ENDBRANCH   2  11
ENDBRANCH   1   4
BRANCH   1  19
ATOM     19  C   PHE A   3      47.196  33.813  16.803  0.00  0.00    +0.241 C 
ATOM     20  N   VAL A   4      47.959  34.023  17.869  0.00  0.00    -0.297 N 
ATOM     21  H   VAL A   4      47.830  33.421  18.707  0.00  0.00    +0.150 HD
ATOM     22  O   PHE A   3      47.234  34.518  15.801  0.00  0.00    -0.273 OA
BRANCH  20  23
ATOM     23  CA  VAL A   4      48.971  35.069  17.902  0.00  0.00    +0.149 C 
BRANCH  23  24
ATOM     24  C   VAL A   4      50.052  34.609  18.860  0.00  0.00    +0.241 C 
ATOM     25  O   VAL A   4      49.794  33.817  19.771  0.00  0.00    -0.273 OA
ATOM     26  N   THR A   5      51.265  35.094  18.639  0.00  0.00    -0.296 N 
ATOM     27  H   THR A   5      51.416  35.731  17.831  0.00  0.00    +0.150 HD
BRANCH  26  28
ATOM     28  CA  THR A   5      52.391  34.758  19.497  0.00  0.00    +0.164 C 
BRANCH  28  29
ATOM     29  C   THR A   5      52.409  35.751  20.654  0.00  0.00    +0.229 C 
ATOM     30  O   THR A   5      52.375  36.964  20.438  0.00  0.00    -0.286 OA
ENDBRANCH  28  29
BRANCH  28  31
ATOM     31  CB  THR A   5      53.721  34.859  18.724  0.00  0.00    +0.136 C 
ATOM     32  CG2 THR A   5      54.900  34.629  19.653  0.00  0.00    +0.034 C 
BRANCH  31  33
ATOM     33  OG1 THR A   5      53.738  33.882  17.678  0.00  0.00    -0.382 OA
ATOM     34  HG1 THR A   5      53.651  32.978  18.071  0.00  0.00    +0.210 HD
ENDBRANCH  31  33
ENDBRANCH  28  31
ENDBRANCH  26  28
ENDBRANCH  23  24
BRANCH  23  35
ATOM     35  CB  VAL A   4      48.435  36.438  18.399  0.00  0.00    +0.027 C 
ATOM     36  CG2 VAL A   4      47.811  36.288  19.771  0.00  0.00    +0.002 C 
ATOM     37  CG1 VAL A   4      47.445  37.013  17.390  0.00  0.00    +0.002 C 
ENDBRANCH  23  35
ENDBRANCH  20  23
ENDBRANCH   1  19
BRANCH   1  38
ATOM     38  CB  PHE A   3      46.914  31.433  16.207  0.00  0.00    +0.055 C 
BRANCH  38  39
ATOM     39  CG  PHE A   3      48.376  31.282  16.563  0.00  0.00    -0.020 A 
ATOM     40  CD2 PHE A   3      48.771  30.403  17.565  0.00  0.00    -0.004 A 
ATOM     41  CE2 PHE A   3      50.098  30.326  17.971  0.00  0.00    -0.000 A 
ATOM     42  CZ  PHE A   3      51.057  31.139  17.372  0.00  0.00    -0.000 A 
ATOM     43  CE1 PHE A   3      50.683  32.020  16.364  0.00  0.00    -0.000 A 
ATOM     44  CD1 PHE A   3      49.346  32.087  15.961  0.00  0.00    -0.004 A 
ENDBRANCH  38  39
ENDBRANCH   1  38
TORSDOF 15
REMARK  Name = ../refined-set-2016/2clh/2clh_pocket.pdb
REMARK  222 active torsions:
REMARK  status: ('A' for Active; 'I' for Inactive)
REMARK    1  A    between atoms: _1  and  _3
REMARK    2  A    between atoms: _3  and  _4
REMARK    3  A    between atoms: _3  and  _6
REMARK    4  A    between atoms: _10  and  _11
REMARK    5  A    between atoms: _16  and  _18
REMARK    6  A    between atoms: _18  and  _19
REMARK    7  A    between atoms: _18  and  _21
REMARK    8  A    between atoms: _21  and  _22
REMARK    9  A    between atoms: _28  and  _30
REMARK   10  A    between atoms: _30  and  _31
REMARK   11  A    between atoms: _30  and  _33
REMARK   12  A    between atoms: _36  and  _38
REMARK   13  A    between atoms: _38  and  _39
REMARK   14  A    between atoms: _38  and  _41
REMARK   15  A    between atoms: _41  and  _42
REMARK   16  A    between atoms: _45  and  _47
REMARK   17  A    between atoms: _47  and  _48
REMARK   18  A    between atoms: _47  and  _50
REMARK   19  A    between atoms: _50  and  _51
REMARK   20  A    between atoms: _54  and  _56
REMARK   21  A    between atoms: _56  and  _57
REMARK   22  A    between atoms: _56  and  _59
REMARK   23  A    between atoms: _59  and  _60
REMARK   24  A    between atoms: _60  and  _61
REMARK   25  A    between atoms: _64  and  _66
REMARK   26  A    between atoms: _66  and  _67
REMARK   27  A    between atoms: _66  and  _69
REMARK   28  A    between atoms: _69  and  _70
REMARK   29  A    between atoms: _73  and  _75
REMARK   30  A    between atoms: _75  and  _76
REMARK   31  A    between atoms: _79  and  _80
REMARK   32  A    between atoms: _85  and  _87
REMARK   33  A    between atoms: _87  and  _88
REMARK   34  A    between atoms: _87  and  _90
REMARK   35  A    between atoms: _90  and  _91
REMARK   36  A    between atoms: _94  and  _96
REMARK   37  A    between atoms: _96  and  _97
REMARK   38  A    between atoms: _100  and  _102
REMARK   39  A    between atoms: _102  and  _103
REMARK   40  A    between atoms: _102  and  _105
REMARK   41  A    between atoms: _105  and  _106
REMARK   42  A    between atoms: _109  and  _111
REMARK   43  A    between atoms: _111  and  _112
REMARK   44  A    between atoms: _114  and  _116
REMARK   45  A    between atoms: _116  and  _117
REMARK   46  A    between atoms: _116  and  _119
REMARK   47  A    between atoms: _119  and  _120
REMARK   48  A    between atoms: _123  and  _125
REMARK   49  A    between atoms: _125  and  _126
REMARK   50  A    between atoms: _125  and  _128
REMARK   51  A    between atoms: _128  and  _129
REMARK   52  A    between atoms: _132  and  _134
REMARK   53  A    between atoms: _134  and  _135
REMARK   54  A    between atoms: _134  and  _137
REMARK   55  A    between atoms: _137  and  _138
REMARK   56  A    between atoms: _143  and  _145
REMARK   57  A    between atoms: _145  and  _146
REMARK   58  A    between atoms: _148  and  _150
REMARK   59  A    between atoms: _150  and  _151
REMARK   60  A    between atoms: _150  and  _153
REMARK   61  A    between atoms: _153  and  _154
REMARK   62  A    between atoms: _157  and  _159
REMARK   63  A    between atoms: _159  and  _160
REMARK   64  A    between atoms: _159  and  _162
REMARK   65  A    between atoms: _162  and  _163
REMARK   66  A    between atoms: _166  and  _168
REMARK   67  A    between atoms: _168  and  _169
REMARK   68  A    between atoms: _168  and  _171
REMARK   69  A    between atoms: _171  and  _172
REMARK   70  A    between atoms: _172  and  _173
REMARK   71  A    between atoms: _175  and  _177
REMARK   72  A    between atoms: _177  and  _178
REMARK   73  A    between atoms: _177  and  _180
REMARK   74  A    between atoms: _180  and  _181
REMARK   75  A    between atoms: _186  and  _187
REMARK   76  A    between atoms: _189  and  _191
REMARK   77  A    between atoms: _191  and  _192
REMARK   78  A    between atoms: _191  and  _194
REMARK   79  A    between atoms: _194  and  _195
REMARK   80  A    between atoms: _198  and  _200
REMARK   81  A    between atoms: _200  and  _201
REMARK   82  A    between atoms: _200  and  _203
REMARK   83  A    between atoms: _206  and  _208
REMARK   84  A    between atoms: _208  and  _209
REMARK   85  A    between atoms: _212  and  _214
REMARK   86  A    between atoms: _214  and  _215
REMARK   87  A    between atoms: _214  and  _217
REMARK   88  A    between atoms: _217  and  _218
REMARK   89  A    between atoms: _221  and  _223
REMARK   90  A    between atoms: _223  and  _224
REMARK   91  A    between atoms: _223  and  _226
REMARK   92  A    between atoms: _229  and  _231
REMARK   93  A    between atoms: _231  and  _232
REMARK   94  A    between atoms: _231  and  _234
REMARK   95  A    between atoms: _234  and  _235
REMARK   96  A    between atoms: _238  and  _240
REMARK   97  A    between atoms: _240  and  _241
REMARK   98  A    between atoms: _240  and  _243
REMARK   99  A    between atoms: _243  and  _244
REMARK  100  A    between atoms: _250  and  _252
REMARK  101  A    between atoms: _252  and  _253
REMARK  102  A    between atoms: _252  and  _255
REMARK  103  A    between atoms: _255  and  _256
REMARK  104  A    between atoms: _259  and  _261
REMARK  105  A    between atoms: _261  and  _262
REMARK  106  A    between atoms: _261  and  _264
REMARK  107  A    between atoms: _266  and  _268
REMARK  108  A    between atoms: _268  and  _269
REMARK  109  A    between atoms: _268  and  _271
REMARK  110  A    between atoms: _271  and  _272
REMARK  111  A    between atoms: _277  and  _278
REMARK  112  A    between atoms: _280  and  _282
REMARK  113  A    between atoms: _282  and  _283
REMARK  114  A    between atoms: _282  and  _285
REMARK  115  A    between atoms: _285  and  _286
REMARK  116  A    between atoms: _291  and  _292
REMARK  117  A    between atoms: _294  and  _296
REMARK  118  A    between atoms: _296  and  _297
REMARK  119  A    between atoms: _296  and  _299
REMARK  120  A    between atoms: _299  and  _300
REMARK  121  A    between atoms: _303  and  _305
REMARK  122  A    between atoms: _305  and  _306
REMARK  123  A    between atoms: _305  and  _308
REMARK  124  A    between atoms: _308  and  _309
REMARK  125  A    between atoms: _312  and  _314
REMARK  126  A    between atoms: _314  and  _315
REMARK  127  A    between atoms: _314  and  _317
REMARK  128  A    between atoms: _317  and  _318
REMARK  129  A    between atoms: _320  and  _322
REMARK  130  A    between atoms: _322  and  _323
REMARK  131  A    between atoms: _322  and  _325
REMARK  132  A    between atoms: _325  and  _326
REMARK  133  A    between atoms: _326  and  _327
REMARK  134  A    between atoms: _327  and  _328
REMARK  135  A    between atoms: _337  and  _339
REMARK  136  A    between atoms: _339  and  _340
REMARK  137  A    between atoms: _342  and  _344
REMARK  138  A    between atoms: _344  and  _345
REMARK  139  A    between atoms: _344  and  _347
REMARK  140  A    between atoms: _350  and  _352
REMARK  141  A    between atoms: _352  and  _353
REMARK  142  A    between atoms: _352  and  _355
REMARK  143  A    between atoms: _355  and  _356
REMARK  144  A    between atoms: _359  and  _361
REMARK  145  A    between atoms: _361  and  _362
REMARK  146  A    between atoms: _364  and  _366
REMARK  147  A    between atoms: _366  and  _367
REMARK  148  A    between atoms: _366  and  _369
REMARK  149  A    between atoms: _369  and  _370
REMARK  150  A    between atoms: _373  and  _375
REMARK  151  A    between atoms: _375  and  _376
REMARK  152  A    between atoms: _375  and  _378
REMARK  153  A    between atoms: _378  and  _379
REMARK  154  A    between atoms: _379  and  _380
REMARK  155  A    between atoms: _385  and  _387
REMARK  156  A    between atoms: _387  and  _388
REMARK  157  A    between atoms: _390  and  _392
REMARK  158  A    between atoms: _392  and  _393
REMARK  159  A    between atoms: _392  and  _395
REMARK  160  A    between atoms: _395  and  _396
REMARK  161  A    between atoms: _402  and  _404
REMARK  162  A    between atoms: _404  and  _405
REMARK  163  A    between atoms: _407  and  _409
REMARK  164  A    between atoms: _409  and  _410
REMARK  165  A    between atoms: _409  and  _412
REMARK  166  A    between atoms: _412  and  _413
REMARK  167  A    between atoms: _416  and  _418
REMARK  168  A    between atoms: _418  and  _419
REMARK  169  A    between atoms: _418  and  _421
REMARK  170  A    between atoms: _421  and  _422
REMARK  171  A    between atoms: _424  and  _426
REMARK  172  A    between atoms: _426  and  _427
REMARK  173  A    between atoms: _426  and  _429
REMARK  174  A    between atoms: _429  and  _430
REMARK  175  A    between atoms: _430  and  _431
REMARK  176  A    between atoms: _436  and  _438
REMARK  177  A    between atoms: _438  and  _439
REMARK  178  A    between atoms: _438  and  _441
REMARK  179  A    between atoms: _441  and  _442
REMARK  180  A    between atoms: _445  and  _447
REMARK  181  A    between atoms: _447  and  _448
REMARK  182  A    between atoms: _447  and  _450
REMARK  183  A    between atoms: _450  and  _451
REMARK  184  A    between atoms: _453  and  _455
REMARK  185  A    between atoms: _455  and  _456
REMARK  186  A    between atoms: _458  and  _460
REMARK  187  A    between atoms: _460  and  _461
REMARK  188  A    between atoms: _460  and  _463
REMARK  189  A    between atoms: _463  and  _464
REMARK  190  A    between atoms: _466  and  _468
REMARK  191  A    between atoms: _468  and  _469
REMARK  192  A    between atoms: _472  and  _474
REMARK  193  A    between atoms: _474  and  _475
REMARK  194  A    between atoms: _474  and  _477
REMARK  195  A    between atoms: _477  and  _478
REMARK  196  A    between atoms: _481  and  _483
REMARK  197  A    between atoms: _483  and  _484
REMARK  198  A    between atoms: _483  and  _486
REMARK  199  A    between atoms: _489  and  _491
REMARK  200  A    between atoms: _491  and  _492
REMARK  201  A    between atoms: _491  and  _494
REMARK  202  A    between atoms: _494  and  _495
REMARK  203  A    between atoms: _495  and  _496
REMARK  204  A    between atoms: _496  and  _497
REMARK  205  A    between atoms: _497  and  _498
REMARK  206  A    between atoms: _502  and  _504
REMARK  207  A    between atoms: _504  and  _505
REMARK  208  A    between atoms: _504  and  _507
REMARK  209  A    between atoms: _511  and  _512
REMARK  210  A    between atoms: _517  and  _519
REMARK  211  A    between atoms: _519  and  _520
REMARK  212  A    between atoms: _519  and  _522
REMARK  213  A    between atoms: _522  and  _523
REMARK  214  A    between atoms: _523  and  _524
REMARK  215  A    between atoms: _529  and  _531
REMARK  216  A    between atoms: _531  and  _532
REMARK  217  A    between atoms: _531  and  _534
REMARK  218  A    between atoms: _534  and  _535
REMARK  219  A    between atoms: _538  and  _540
REMARK  220  A    between atoms: _540  and  _541
REMARK  221  A    between atoms: _540  and  _543
REMARK  222  A    between atoms: _543  and  _544
REMARK                            x       y       z     vdW  Elec       q    Type
REMARK                         _______ _______ _______ _____ _____    ______ ____
ROOT
ATOM      1  CA  GLU A   2      45.244  30.062  20.522  0.00  0.00    +0.149 C 
ENDROOT
BRANCH   1   4
ATOM      2  C   LEU A   1      43.248  30.979  21.573  0.00  0.00    +0.238 C 
ATOM      3  O   LEU A   1      43.164  30.059  22.375  0.00  0.00    -0.274 OA
ATOM      4  N   GLU A   2      44.180  31.046  20.632  0.00  0.00    -0.297 N 
ATOM      5  H   GLU A   2      44.148  31.830  19.949  0.00  0.00    +0.150 HD
BRANCH   2   6
ATOM      6  CA  LEU A   1      42.253  32.128  21.595  0.00  0.00    +0.145 C 
BRANCH   6   7
ATOM      7  N   LEU A   1      40.930  31.693  22.016  0.00  0.00    -0.238 NA
ATOM      8  H   LEU A   1      40.821  31.149  22.896  0.00  0.00    +0.142 HD
ENDBRANCH   6   7
BRANCH   6   9
ATOM      9  CB  LEU A   1      42.787  33.204  22.543  0.00  0.00    +0.026 C 
BRANCH   9  10
ATOM     10  CG  LEU A   1      42.000  34.503  22.713  0.00  0.00    +0.002 C 
ATOM     11  CD2 LEU A   1      42.574  35.287  23.887  0.00  0.00    +0.000 C 
ATOM     12  CD1 LEU A   1      42.058  35.318  21.434  0.00  0.00    +0.000 C 
ENDBRANCH   9  10
ENDBRANCH   6   9
ENDBRANCH   2   6
ENDBRANCH   1   4
BRANCH   1  13
ATOM     13  C   GLU A   2      46.461  30.974  20.684  0.00  0.00    +0.241 C 
ATOM     14  N   LEU A   3      47.243  30.751  21.734  0.00  0.00    -0.297 N 
ATOM     15  H   LEU A   3      47.036  29.951  22.366  0.00  0.00    +0.150 HD
ATOM     16  O   GLU A   2      46.672  31.885  19.882  0.00  0.00    -0.273 OA
BRANCH  14  17
ATOM     17  CA  LEU A   3      48.388  31.610  22.015  0.00  0.00    +0.149 C 
BRANCH  17  18
ATOM     18  C   LEU A   3      49.721  30.883  22.064  0.00  0.00    +0.241 C 
ATOM     19  O   LEU A   3      49.896  29.936  22.827  0.00  0.00    -0.273 OA
ATOM     20  N   GLY A   4      50.667  31.351  21.260  0.00  0.00    -0.296 N 
ATOM     21  H   GLY A   4      50.473  32.172  20.652  0.00  0.00    +0.150 HD
BRANCH  20  22
ATOM     22  CA  GLY A   4      51.970  30.719  21.229  0.00  0.00    +0.163 C 
BRANCH  22  23
ATOM     23  C   GLY A   4      52.982  31.326  22.179  0.00  0.00    +0.229 C 
ATOM     24  O   GLY A   4      53.036  32.543  22.362  0.00  0.00    -0.286 OA
ENDBRANCH  22  23
ENDBRANCH  20  22
ENDBRANCH  17  18
BRANCH  17  25
ATOM     25  CB  LEU A   3      48.162  32.330  23.345  0.00  0.00    +0.029 C 
BRANCH  25  26
ATOM     26  CG  LEU A   3      46.838  33.095  23.428  0.00  0.00    +0.002 C 
ATOM     27  CD2 LEU A   3      46.604  33.550  24.868  0.00  0.00    +0.000 C 
ATOM     28  CD1 LEU A   3      46.857  34.272  22.463  0.00  0.00    +0.000 C 
ENDBRANCH  25  26
ENDBRANCH  17  25
ENDBRANCH  14  17
ENDBRANCH   1  13
BRANCH   1  29
ATOM     29  CB  GLU A   2      45.215  29.398  19.145  0.00  0.00    +0.041 C 
BRANCH  29  30
ATOM     30  CG  GLU A   2      45.963  28.082  19.075  0.00  0.00    +0.116 C 
BRANCH  30  31
ATOM     31  CD  GLU A   2      45.511  27.086  20.131  0.00  0.00    +0.365 C 
ATOM     32  OE2 GLU A   2      46.388  26.485  20.784  0.00  0.00    -0.246 OA
ATOM     33  OE1 GLU A   2      44.288  26.895  20.300  0.00  0.00    -0.246 OA
ENDBRANCH  30  31
ENDBRANCH  29  30
ENDBRANCH   1  29
TORSDOF 15
REMARK  Name = ../refined-set-2016/2clh/2clh_pocket.pdb
REMARK  222 active torsions:
REMARK  status: ('A' for Active; 'I' for Inactive)
REMARK    1  A    between atoms: _1  and  _3
REMARK    2  A    between atoms: _3  and  _4
REMARK    3  A    between atoms: _3  and  _6
REMARK    4  A    between atoms: _10  and  _11
REMARK    5  A    between atoms: _16  and  _18
REMARK    6  A    between atoms: _18  and  _19
REMARK    7  A    between atoms: _18  and  _21
REMARK    8  A    between atoms: _21  and  _22
REMARK    9  A    between atoms: _28  and  _30
REMARK   10  A    between atoms: _30  and  _31
REMARK   11  A    between atoms: _30  and  _33
REMARK   12  A    between atoms: _36  and  _38
REMARK   13  A    between atoms: _38  and  _39
REMARK   14  A    between atoms: _38  and  _41
REMARK   15  A    between atoms: _41  and  _42
REMARK   16  A    between atoms: _45  and  _47
REMARK   17  A    between atoms: _47  and  _48
REMARK   18  A    between atoms: _47  and  _50
REMARK   19  A    between atoms: _50  and  _51
REMARK   20  A    between atoms: _54  and  _56
REMARK   21  A    between atoms: _56  and  _57
REMARK   22  A    between atoms: _56  and  _59
REMARK   23  A    between atoms: _59  and  _60
REMARK   24  A    between atoms: _60  and  _61
REMARK   25  A    between atoms: _64  and  _66
REMARK   26  A    between atoms: _66  and  _67
REMARK   27  A    between atoms: _66  and  _69
REMARK   28  A    between atoms: _69  and  _70
REMARK   29  A    between atoms: _73  and  _75
REMARK   30  A    between atoms: _75  and  _76
REMARK   31  A    between atoms: _79  and  _80
REMARK   32  A    between atoms: _85  and  _87
REMARK   33  A    between atoms: _87  and  _88
REMARK   34  A    between atoms: _87  and  _90
REMARK   35  A    between atoms: _90  and  _91
REMARK   36  A    between atoms: _94  and  _96
REMARK   37  A    between atoms: _96  and  _97
REMARK   38  A    between atoms: _100  and  _102
REMARK   39  A    between atoms: _102  and  _103
REMARK   40  A    between atoms: _102  and  _105
REMARK   41  A    between atoms: _105  and  _106
REMARK   42  A    between atoms: _109  and  _111
REMARK   43  A    between atoms: _111  and  _112
REMARK   44  A    between atoms: _114  and  _116
REMARK   45  A    between atoms: _116  and  _117
REMARK   46  A    between atoms: _116  and  _119
REMARK   47  A    between atoms: _119  and  _120
REMARK   48  A    between atoms: _123  and  _125
REMARK   49  A    between atoms: _125  and  _126
REMARK   50  A    between atoms: _125  and  _128
REMARK   51  A    between atoms: _128  and  _129
REMARK   52  A    between atoms: _132  and  _134
REMARK   53  A    between atoms: _134  and  _135
REMARK   54  A    between atoms: _134  and  _137
REMARK   55  A    between atoms: _137  and  _138
REMARK   56  A    between atoms: _143  and  _145
REMARK   57  A    between atoms: _145  and  _146
REMARK   58  A    between atoms: _148  and  _150
REMARK   59  A    between atoms: _150  and  _151
REMARK   60  A    between atoms: _150  and  _153
REMARK   61  A    between atoms: _153  and  _154
REMARK   62  A    between atoms: _157  and  _159
REMARK   63  A    between atoms: _159  and  _160
REMARK   64  A    between atoms: _159  and  _162
REMARK   65  A    between atoms: _162  and  _163
REMARK   66  A    between atoms: _166  and  _168
REMARK   67  A    between atoms: _168  and  _169
REMARK   68  A    between atoms: _168  and  _171
REMARK   69  A    between atoms: _171  and  _172
REMARK   70  A    between atoms: _172  and  _173
REMARK   71  A    between atoms: _175  and  _177
REMARK   72  A    between atoms: _177  and  _178
REMARK   73  A    between atoms: _177  and  _180
REMARK   74  A    between atoms: _180  and  _181
REMARK   75  A    between atoms: _186  and  _187
REMARK   76  A    between atoms: _189  and  _191
REMARK   77  A    between atoms: _191  and  _192
REMARK   78  A    between atoms: _191  and  _194
REMARK   79  A    between atoms: _194  and  _195
REMARK   80  A    between atoms: _198  and  _200
REMARK   81  A    between atoms: _200  and  _201
REMARK   82  A    between atoms: _200  and  _203
REMARK   83  A    between atoms: _206  and  _208
REMARK   84  A    between atoms: _208  and  _209
REMARK   85  A    between atoms: _212  and  _214
REMARK   86  A    between atoms: _214  and  _215
REMARK   87  A    between atoms: _214  and  _217
REMARK   88  A    between atoms: _217  and  _218
REMARK   89  A    between atoms: _221  and  _223
REMARK   90  A    between atoms: _223  and  _224
REMARK   91  A    between atoms: _223  and  _226
REMARK   92  A    between atoms: _229  and  _231
REMARK   93  A    between atoms: _231  and  _232
REMARK   94  A    between atoms: _231  and  _234
REMARK   95  A    between atoms: _234  and  _235
REMARK   96  A    between atoms: _238  and  _240
REMARK   97  A    between atoms: _240  and  _241
REMARK   98  A    between atoms: _240  and  _243
REMARK   99  A    between atoms: _243  and  _244
REMARK  100  A    between atoms: _250  and  _252
REMARK  101  A    between atoms: _252  and  _253
REMARK  102  A    between atoms: _252  and  _255
REMARK  103  A    between atoms: _255  and  _256
REMARK  104  A    between atoms: _259  and  _261
REMARK  105  A    between atoms: _261  and  _262
REMARK  106  A    between atoms: _261  and  _264
REMARK  107  A    between atoms: _266  and  _268
REMARK  108  A    between atoms: _268  and  _269
REMARK  109  A    between atoms: _268  and  _271
REMARK  110  A    between atoms: _271  and  _272
REMARK  111  A    between atoms: _277  and  _278
REMARK  112  A    between atoms: _280  and  _282
REMARK  113  A    between atoms: _282  and  _283
REMARK  114  A    between atoms: _282  and  _285
REMARK  115  A    between atoms: _285  and  _286
REMARK  116  A    between atoms: _291  and  _292
REMARK  117  A    between atoms: _294  and  _296
REMARK  118  A    between atoms: _296  and  _297
REMARK  119  A    between atoms: _296  and  _299
REMARK  120  A    between atoms: _299  and  _300
REMARK  121  A    between atoms: _303  and  _305
REMARK  122  A    between atoms: _305  and  _306
REMARK  123  A    between atoms: _305  and  _308
REMARK  124  A    between atoms: _308  and  _309
REMARK  125  A    between atoms: _312  and  _314
REMARK  126  A    between atoms: _314  and  _315
REMARK  127  A    between atoms: _314  and  _317
REMARK  128  A    between atoms: _317  and  _318
REMARK  129  A    between atoms: _320  and  _322
REMARK  130  A    between atoms: _322  and  _323
REMARK  131  A    between atoms: _322  and  _325
REMARK  132  A    between atoms: _325  and  _326
REMARK  133  A    between atoms: _326  and  _327
REMARK  134  A    between atoms: _327  and  _328
REMARK  135  A    between atoms: _337  and  _339
REMARK  136  A    between atoms: _339  and  _340
REMARK  137  A    between atoms: _342  and  _344
REMARK  138  A    between atoms: _344  and  _345
REMARK  139  A    between atoms: _344  and  _347
REMARK  140  A    between atoms: _350  and  _352
REMARK  141  A    between atoms: _352  and  _353
REMARK  142  A    between atoms: _352  and  _355
REMARK  143  A    between atoms: _355  and  _356
REMARK  144  A    between atoms: _359  and  _361
REMARK  145  A    between atoms: _361  and  _362
REMARK  146  A    between atoms: _364  and  _366
REMARK  147  A    between atoms: _366  and  _367
REMARK  148  A    between atoms: _366  and  _369
REMARK  149  A    between atoms: _369  and  _370
REMARK  150  A    between atoms: _373  and  _375
REMARK  151  A    between atoms: _375  and  _376
REMARK  152  A    between atoms: _375  and  _378
REMARK  153  A    between atoms: _378  and  _379
REMARK  154  A    between atoms: _379  and  _380
REMARK  155  A    between atoms: _385  and  _387
REMARK  156  A    between atoms: _387  and  _388
REMARK  157  A    between atoms: _390  and  _392
REMARK  158  A    between atoms: _392  and  _393
REMARK  159  A    between atoms: _392  and  _395
REMARK  160  A    between atoms: _395  and  _396
REMARK  161  A    between atoms: _402  and  _404
REMARK  162  A    between atoms: _404  and  _405
REMARK  163  A    between atoms: _407  and  _409
REMARK  164  A    between atoms: _409  and  _410
REMARK  165  A    between atoms: _409  and  _412
REMARK  166  A    between atoms: _412  and  _413
REMARK  167  A    between atoms: _416  and  _418
REMARK  168  A    between atoms: _418  and  _419
REMARK  169  A    between atoms: _418  and  _421
REMARK  170  A    between atoms: _421  and  _422
REMARK  171  A    between atoms: _424  and  _426
REMARK  172  A    between atoms: _426  and  _427
REMARK  173  A    between atoms: _426  and  _429
REMARK  174  A    between atoms: _429  and  _430
REMARK  175  A    between atoms: _430  and  _431
REMARK  176  A    between atoms: _436  and  _438
REMARK  177  A    between atoms: _438  and  _439
REMARK  178  A    between atoms: _438  and  _441
REMARK  179  A    between atoms: _441  and  _442
REMARK  180  A    between atoms: _445  and  _447
REMARK  181  A    between atoms: _447  and  _448
REMARK  182  A    between atoms: _447  and  _450
REMARK  183  A    between atoms: _450  and  _451
REMARK  184  A    between atoms: _453  and  _455
REMARK  185  A    between atoms: _455  and  _456
REMARK  186  A    between atoms: _458  and  _460
REMARK  187  A    between atoms: _460  and  _461
REMARK  188  A    between atoms: _460  and  _463
REMARK  189  A    between atoms: _463  and  _464
REMARK  190  A    between atoms: _466  and  _468
REMARK  191  A    between atoms: _468  and  _469
REMARK  192  A    between atoms: _472  and  _474
REMARK  193  A    between atoms: _474  and  _475
REMARK  194  A    between atoms: _474  and  _477
REMARK  195  A    between atoms: _477  and  _478
REMARK  196  A    between atoms: _481  and  _483
REMARK  197  A    between atoms: _483  and  _484
REMARK  198  A    between atoms: _483  and  _486
REMARK  199  A    between atoms: _489  and  _491
REMARK  200  A    between atoms: _491  and  _492
REMARK  201  A    between atoms: _491  and  _494
REMARK  202  A    between atoms: _494  and  _495
REMARK  203  A    between atoms: _495  and  _496
REMARK  204  A    between atoms: _496  and  _497
REMARK  205  A    between atoms: _497  and  _498
REMARK  206  A    between atoms: _502  and  _504
REMARK  207  A    between atoms: _504  and  _505
REMARK  208  A    between atoms: _504  and  _507
REMARK  209  A    between atoms: _511  and  _512
REMARK  210  A    between atoms: _517  and  _519
REMARK  211  A    between atoms: _519  and  _520
REMARK  212  A    between atoms: _519  and  _522
REMARK  213  A    between atoms: _522  and  _523
REMARK  214  A    between atoms: _523  and  _524
REMARK  215  A    between atoms: _529  and  _531
REMARK  216  A    between atoms: _531  and  _532
REMARK  217  A    between atoms: _531  and  _534
REMARK  218  A    between atoms: _534  and  _535
REMARK  219  A    between atoms: _538  and  _540
REMARK  220  A    between atoms: _540  and  _541
REMARK  221  A    between atoms: _540  and  _543
REMARK  222  A    between atoms: _543  and  _544
REMARK                            x       y       z     vdW  Elec       q    Type
REMARK                         _______ _______ _______ _____ _____    ______ ____
ROOT
ATOM      1  C   LEU A   2      58.568  23.216  12.691  0.00  0.00    +0.241 C 
ATOM      2  N   ALA A   3      57.434  23.720  13.164  0.00  0.00    -0.297 N 
ATOM      3  H   ALA A   3      57.461  24.364  13.981  0.00  0.00    +0.150 HD
ATOM      4  O   LEU A   2      58.603  22.435  11.738  0.00  0.00    -0.273 OA
ENDROOT
BRANCH   2   5
ATOM      5  CA  ALA A   3      56.151  23.385  12.556  0.00  0.00    +0.149 C 
ATOM      6  CB  ALA A   3      55.260  22.677  13.570  0.00  0.00    +0.031 C 
BRANCH   5   7
ATOM      7  C   ALA A   3      55.459  24.644  12.035  0.00  0.00    +0.241 C 
ATOM      8  N   ASP A   4      56.169  25.766  12.087  0.00  0.00    -0.297 N 
ATOM      9  H   ASP A   4      57.139  25.736  12.462  0.00  0.00    +0.150 HD
ATOM     10  O   ALA A   3      54.312  24.598  11.587  0.00  0.00    -0.273 OA
BRANCH   8  11
ATOM     11  CA  ASP A   4      55.622  27.038  11.632  0.00  0.00    +0.160 C 
BRANCH  11  12
ATOM     12  C   ASP A   4      56.279  27.598  10.379  0.00  0.00    +0.241 C 
ATOM     13  O   ASP A   4      57.488  27.461  10.177  0.00  0.00    -0.273 OA
ATOM     14  N   GLY A   5      55.462  28.239   9.548  0.00  0.00    -0.296 N 
ATOM     15  H   GLY A   5      54.449  28.301   9.776  0.00  0.00    +0.150 HD
BRANCH  14  16
ATOM     16  CA  GLY A   5      55.955  28.853   8.332  0.00  0.00    +0.163 C 
BRANCH  16  17
ATOM     17  C   GLY A   5      56.637  30.169   8.669  0.00  0.00    +0.229 C 
ATOM     18  O   GLY A   5      56.684  30.559   9.837  0.00  0.00    -0.286 OA
ENDBRANCH  16  17
ENDBRANCH  14  16
ENDBRANCH  11  12
BRANCH  11  19
ATOM     19  CB  ASP A   4      55.722  28.078  12.748  0.00  0.00    +0.143 C 
BRANCH  19  20
ATOM     20  CG  ASP A   4      54.679  27.873  13.821  0.00  0.00    +0.367 C 
ATOM     21  OD2 ASP A   4      55.056  27.545  14.967  0.00  0.00    -0.246 OA
ATOM     22  OD1 ASP A   4      53.481  28.033  13.511  0.00  0.00    -0.246 OA
ENDBRANCH  19  20
ENDBRANCH  11  19
ENDBRANCH   8  11
ENDBRANCH   5   7
ENDBRANCH   2   5
BRANCH   1  23
ATOM     23  CA  LEU A   2      59.861  23.645  13.379  0.00  0.00    +0.149 C 
BRANCH  23  25
ATOM     24  C   PRO A   1      59.287  25.742  14.526  0.00  0.00    +0.239 C 
ATOM     25  N   LEU A   2      59.746  24.492  14.567  0.00  0.00    -0.297 N 
ATOM     26  H   LEU A   2      60.036  24.100  15.486  0.00  0.00    +0.150 HD
ATOM     27  O   PRO A   1      58.867  26.274  13.495  0.00  0.00    -0.274 OA
BRANCH  24  32
ATOM     28  N   PRO A   1      60.643  26.916  16.227  0.00  0.00    -0.210 NA
ATOM     29  CD  PRO A   1      60.818  28.371  16.058  0.00  0.00    +0.089 C 
ATOM     30  CG  PRO A   1      59.586  28.765  15.266  0.00  0.00    +0.021 C 
ATOM     31  CB  PRO A   1      58.537  27.827  15.791  0.00  0.00    +0.028 C 
ATOM     32  CA  PRO A   1      59.286  26.499  15.859  0.00  0.00    +0.149 C 
ENDBRANCH  24  32
ENDBRANCH  23  25
BRANCH  23  33
ATOM     33  CB  LEU A   2      60.703  22.406  13.715  0.00  0.00    +0.029 C 
BRANCH  33  34
ATOM     34  CG  LEU A   2      60.263  21.541  14.900  0.00  0.00    +0.002 C 
ATOM     35  CD2 LEU A   2      61.403  20.617  15.304  0.00  0.00    +0.000 C 
ATOM     36  CD1 LEU A   2      59.037  20.727  14.520  0.00  0.00    +0.000 C 
ENDBRANCH  33  34
ENDBRANCH  23  33
ENDBRANCH   1  23
TORSDOF 13
REMARK  Name = ../refined-set-2016/2clh/2clh_pocket.pdb
REMARK  222 active torsions:
REMARK  status: ('A' for Active; 'I' for Inactive)
REMARK    1  A    between atoms: _1  and  _3
REMARK    2  A    between atoms: _3  and  _4
REMARK    3  A    between atoms: _3  and  _6
REMARK    4  A    between atoms: _10  and  _11
REMARK    5  A    between atoms: _16  and  _18
REMARK    6  A    between atoms: _18  and  _19
REMARK    7  A    between atoms: _18  and  _21
REMARK    8  A    between atoms: _21  and  _22
REMARK    9  A    between atoms: _28  and  _30
REMARK   10  A    between atoms: _30  and  _31
REMARK   11  A    between atoms: _30  and  _33
REMARK   12  A    between atoms: _36  and  _38
REMARK   13  A    between atoms: _38  and  _39
REMARK   14  A    between atoms: _38  and  _41
REMARK   15  A    between atoms: _41  and  _42
REMARK   16  A    between atoms: _45  and  _47
REMARK   17  A    between atoms: _47  and  _48
REMARK   18  A    between atoms: _47  and  _50
REMARK   19  A    between atoms: _50  and  _51
REMARK   20  A    between atoms: _54  and  _56
REMARK   21  A    between atoms: _56  and  _57
REMARK   22  A    between atoms: _56  and  _59
REMARK   23  A    between atoms: _59  and  _60
REMARK   24  A    between atoms: _60  and  _61
REMARK   25  A    between atoms: _64  and  _66
REMARK   26  A    between atoms: _66  and  _67
REMARK   27  A    between atoms: _66  and  _69
REMARK   28  A    between atoms: _69  and  _70
REMARK   29  A    between atoms: _73  and  _75
REMARK   30  A    between atoms: _75  and  _76
REMARK   31  A    between atoms: _79  and  _80
REMARK   32  A    between atoms: _85  and  _87
REMARK   33  A    between atoms: _87  and  _88
REMARK   34  A    between atoms: _87  and  _90
REMARK   35  A    between atoms: _90  and  _91
REMARK   36  A    between atoms: _94  and  _96
REMARK   37  A    between atoms: _96  and  _97
REMARK   38  A    between atoms: _100  and  _102
REMARK   39  A    between atoms: _102  and  _103
REMARK   40  A    between atoms: _102  and  _105
REMARK   41  A    between atoms: _105  and  _106
REMARK   42  A    between atoms: _109  and  _111
REMARK   43  A    between atoms: _111  and  _112
REMARK   44  A    between atoms: _114  and  _116
REMARK   45  A    between atoms: _116  and  _117
REMARK   46  A    between atoms: _116  and  _119
REMARK   47  A    between atoms: _119  and  _120
REMARK   48  A    between atoms: _123  and  _125
REMARK   49  A    between atoms: _125  and  _126
REMARK   50  A    between atoms: _125  and  _128
REMARK   51  A    between atoms: _128  and  _129
REMARK   52  A    between atoms: _132  and  _134
REMARK   53  A    between atoms: _134  and  _135
REMARK   54  A    between atoms: _134  and  _137
REMARK   55  A    between atoms: _137  and  _138
REMARK   56  A    between atoms: _143  and  _145
REMARK   57  A    between atoms: _145  and  _146
REMARK   58  A    between atoms: _148  and  _150
REMARK   59  A    between atoms: _150  and  _151
REMARK   60  A    between atoms: _150  and  _153
REMARK   61  A    between atoms: _153  and  _154
REMARK   62  A    between atoms: _157  and  _159
REMARK   63  A    between atoms: _159  and  _160
REMARK   64  A    between atoms: _159  and  _162
REMARK   65  A    between atoms: _162  and  _163
REMARK   66  A    between atoms: _166  and  _168
REMARK   67  A    between atoms: _168  and  _169
REMARK   68  A    between atoms: _168  and  _171
REMARK   69  A    between atoms: _171  and  _172
REMARK   70  A    between atoms: _172  and  _173
REMARK   71  A    between atoms: _175  and  _177
REMARK   72  A    between atoms: _177  and  _178
REMARK   73  A    between atoms: _177  and  _180
REMARK   74  A    between atoms: _180  and  _181
REMARK   75  A    between atoms: _186  and  _187
REMARK   76  A    between atoms: _189  and  _191
REMARK   77  A    between atoms: _191  and  _192
REMARK   78  A    between atoms: _191  and  _194
REMARK   79  A    between atoms: _194  and  _195
REMARK   80  A    between atoms: _198  and  _200
REMARK   81  A    between atoms: _200  and  _201
REMARK   82  A    between atoms: _200  and  _203
REMARK   83  A    between atoms: _206  and  _208
REMARK   84  A    between atoms: _208  and  _209
REMARK   85  A    between atoms: _212  and  _214
REMARK   86  A    between atoms: _214  and  _215
REMARK   87  A    between atoms: _214  and  _217
REMARK   88  A    between atoms: _217  and  _218
REMARK   89  A    between atoms: _221  and  _223
REMARK   90  A    between atoms: _223  and  _224
REMARK   91  A    between atoms: _223  and  _226
REMARK   92  A    between atoms: _229  and  _231
REMARK   93  A    between atoms: _231  and  _232
REMARK   94  A    between atoms: _231  and  _234
REMARK   95  A    between atoms: _234  and  _235
REMARK   96  A    between atoms: _238  and  _240
REMARK   97  A    between atoms: _240  and  _241
REMARK   98  A    between atoms: _240  and  _243
REMARK   99  A    between atoms: _243  and  _244
REMARK  100  A    between atoms: _250  and  _252
REMARK  101  A    between atoms: _252  and  _253
REMARK  102  A    between atoms: _252  and  _255
REMARK  103  A    between atoms: _255  and  _256
REMARK  104  A    between atoms: _259  and  _261
REMARK  105  A    between atoms: _261  and  _262
REMARK  106  A    between atoms: _261  and  _264
REMARK  107  A    between atoms: _266  and  _268
REMARK  108  A    between atoms: _268  and  _269
REMARK  109  A    between atoms: _268  and  _271
REMARK  110  A    between atoms: _271  and  _272
REMARK  111  A    between atoms: _277  and  _278
REMARK  112  A    between atoms: _280  and  _282
REMARK  113  A    between atoms: _282  and  _283
REMARK  114  A    between atoms: _282  and  _285
REMARK  115  A    between atoms: _285  and  _286
REMARK  116  A    between atoms: _291  and  _292
REMARK  117  A    between atoms: _294  and  _296
REMARK  118  A    between atoms: _296  and  _297
REMARK  119  A    between atoms: _296  and  _299
REMARK  120  A    between atoms: _299  and  _300
REMARK  121  A    between atoms: _303  and  _305
REMARK  122  A    between atoms: _305  and  _306
REMARK  123  A    between atoms: _305  and  _308
REMARK  124  A    between atoms: _308  and  _309
REMARK  125  A    between atoms: _312  and  _314
REMARK  126  A    between atoms: _314  and  _315
REMARK  127  A    between atoms: _314  and  _317
REMARK  128  A    between atoms: _317  and  _318
REMARK  129  A    between atoms: _320  and  _322
REMARK  130  A    between atoms: _322  and  _323
REMARK  131  A    between atoms: _322  and  _325
REMARK  132  A    between atoms: _325  and  _326
REMARK  133  A    between atoms: _326  and  _327
REMARK  134  A    between atoms: _327  and  _328
REMARK  135  A    between atoms: _337  and  _339
REMARK  136  A    between atoms: _339  and  _340
REMARK  137  A    between atoms: _342  and  _344
REMARK  138  A    between atoms: _344  and  _345
REMARK  139  A    between atoms: _344  and  _347
REMARK  140  A    between atoms: _350  and  _352
REMARK  141  A    between atoms: _352  and  _353
REMARK  142  A    between atoms: _352  and  _355
REMARK  143  A    between atoms: _355  and  _356
REMARK  144  A    between atoms: _359  and  _361
REMARK  145  A    between atoms: _361  and  _362
REMARK  146  A    between atoms: _364  and  _366
REMARK  147  A    between atoms: _366  and  _367
REMARK  148  A    between atoms: _366  and  _369
REMARK  149  A    between atoms: _369  and  _370
REMARK  150  A    between atoms: _373  and  _375
REMARK  151  A    between atoms: _375  and  _376
REMARK  152  A    between atoms: _375  and  _378
REMARK  153  A    between atoms: _378  and  _379
REMARK  154  A    between atoms: _379  and  _380
REMARK  155  A    between atoms: _385  and  _387
REMARK  156  A    between atoms: _387  and  _388
REMARK  157  A    between atoms: _390  and  _392
REMARK  158  A    between atoms: _392  and  _393
REMARK  159  A    between atoms: _392  and  _395
REMARK  160  A    between atoms: _395  and  _396
REMARK  161  A    between atoms: _402  and  _404
REMARK  162  A    between atoms: _404  and  _405
REMARK  163  A    between atoms: _407  and  _409
REMARK  164  A    between atoms: _409  and  _410
REMARK  165  A    between atoms: _409  and  _412
REMARK  166  A    between atoms: _412  and  _413
REMARK  167  A    between atoms: _416  and  _418
REMARK  168  A    between atoms: _418  and  _419
REMARK  169  A    between atoms: _418  and  _421
REMARK  170  A    between atoms: _421  and  _422
REMARK  171  A    between atoms: _424  and  _426
REMARK  172  A    between atoms: _426  and  _427
REMARK  173  A    between atoms: _426  and  _429
REMARK  174  A    between atoms: _429  and  _430
REMARK  175  A    between atoms: _430  and  _431
REMARK  176  A    between atoms: _436  and  _438
REMARK  177  A    between atoms: _438  and  _439
REMARK  178  A    between atoms: _438  and  _441
REMARK  179  A    between atoms: _441  and  _442
REMARK  180  A    between atoms: _445  and  _447
REMARK  181  A    between atoms: _447  and  _448
REMARK  182  A    between atoms: _447  and  _450
REMARK  183  A    between atoms: _450  and  _451
REMARK  184  A    between atoms: _453  and  _455
REMARK  185  A    between atoms: _455  and  _456
REMARK  186  A    between atoms: _458  and  _460
REMARK  187  A    between atoms: _460  and  _461
REMARK  188  A    between atoms: _460  and  _463
REMARK  189  A    between atoms: _463  and  _464
REMARK  190  A    between atoms: _466  and  _468
REMARK  191  A    between atoms: _468  and  _469
REMARK  192  A    between atoms: _472  and  _474
REMARK  193  A    between atoms: _474  and  _475
REMARK  194  A    between atoms: _474  and  _477
REMARK  195  A    between atoms: _477  and  _478
REMARK  196  A    between atoms: _481  and  _483
REMARK  197  A    between atoms: _483  and  _484
REMARK  198  A    between atoms: _483  and  _486
REMARK  199  A    between atoms: _489  and  _491
REMARK  200  A    between atoms: _491  and  _492
REMARK  201  A    between atoms: _491  and  _494
REMARK  202  A    between atoms: _494  and  _495
REMARK  203  A    between atoms: _495  and  _496
REMARK  204  A    between atoms: _496  and  _497
REMARK  205  A    between atoms: _497  and  _498
REMARK  206  A    between atoms: _502  and  _504
REMARK  207  A    between atoms: _504  and  _505
REMARK  208  A    between atoms: _504  and  _507
REMARK  209  A    between atoms: _511  and  _512
REMARK  210  A    between atoms: _517  and  _519
REMARK  211  A    between atoms: _519  and  _520
REMARK  212  A    between atoms: _519  and  _522
REMARK  213  A    between atoms: _522  and  _523
REMARK  214  A    between atoms: _523  and  _524
REMARK  215  A    between atoms: _529  and  _531
REMARK  216  A    between atoms: _531  and  _532
REMARK  217  A    between atoms: _531  and  _534
REMARK  218  A    between atoms: _534  and  _535
REMARK  219  A    between atoms: _538  and  _540
REMARK  220  A    between atoms: _540  and  _541
REMARK  221  A    between atoms: _540  and  _543
REMARK  222  A    between atoms: _543  and  _544
REMARK                            x       y       z     vdW  Elec       q    Type
REMARK                         _______ _______ _______ _____ _____    ______ ____
ROOT
ATOM      1  C   THR A   1      55.138  34.236  10.639  0.00  0.00    +0.241 C 
ATOM      2  O   THR A   1      55.449  35.201  11.343  0.00  0.00    -0.274 OA
ATOM      3  N   ILE A   2      54.885  33.034  11.143  0.00  0.00    -0.298 N 
ATOM      4  H   ILE A   2      54.628  32.251  10.508  0.00  0.00    +0.150 HD
ENDROOT
BRANCH   1   5
ATOM      5  CA  THR A   1      55.029  34.382   9.125  0.00  0.00    +0.172 C 
BRANCH   5   6
ATOM      6  N   THR A   1      55.807  33.379   8.409  0.00  0.00    -0.236 NA
ATOM      7  H   THR A   1      55.347  32.782   7.693  0.00  0.00    +0.142 HD
ENDBRANCH   5   6
BRANCH   5   8
ATOM      8  CB  THR A   1      53.548  34.329   8.719  0.00  0.00    +0.135 C 
ATOM      9  CG2 THR A   1      52.760  35.409   9.451  0.00  0.00    +0.034 C 
BRANCH   8  10
ATOM     10  OG1 THR A   1      53.436  34.546   7.306  0.00  0.00    -0.383 OA
ATOM     11  HG1 THR A   1      52.482  34.512   7.043  0.00  0.00    +0.210 HD
ENDBRANCH   8  10
ENDBRANCH   5   8
ENDBRANCH   1   5
BRANCH   3  12
ATOM     12  CA  ILE A   2      54.965  32.804  12.578  0.00  0.00    +0.137 C 
BRANCH  12  13
ATOM     13  C   ILE A   2      56.413  32.686  13.042  0.00  0.00    +0.227 C 
ATOM     14  O   ILE A   2      56.731  32.968  14.199  0.00  0.00    -0.286 OA
ENDBRANCH  12  13
BRANCH  12  15
ATOM     15  CB  ILE A   2      54.139  31.560  12.982  0.00  0.00    +0.026 C 
ATOM     16  CG2 ILE A   2      54.513  31.092  14.384  0.00  0.00    +0.002 C 
BRANCH  15  17
ATOM     17  CG1 ILE A   2      52.650  31.917  12.934  0.00  0.00    +0.002 C 
ATOM     18  CD1 ILE A   2      52.290  33.087  13.821  0.00  0.00    +0.000 C 
ENDBRANCH  15  17
ENDBRANCH  12  15
ENDBRANCH   3  12
TORSDOF 8
REMARK  Name = ../refined-set-2016/2clh/2clh_pocket.pdb
REMARK  222 active torsions:
REMARK  status: ('A' for Active; 'I' for Inactive)
REMARK    1  A    between atoms: _1  and  _3
REMARK    2  A    between atoms: _3  and  _4
REMARK    3  A    between atoms: _3  and  _6
REMARK    4  A    between atoms: _10  and  _11
REMARK    5  A    between atoms: _16  and  _18
REMARK    6  A    between atoms: _18  and  _19
REMARK    7  A    between atoms: _18  and  _21
REMARK    8  A    between atoms: _21  and  _22
REMARK    9  A    between atoms: _28  and  _30
REMARK   10  A    between atoms: _30  and  _31
REMARK   11  A    between atoms: _30  and  _33
REMARK   12  A    between atoms: _36  and  _38
REMARK   13  A    between atoms: _38  and  _39
REMARK   14  A    between atoms: _38  and  _41
REMARK   15  A    between atoms: _41  and  _42
REMARK   16  A    between atoms: _45  and  _47
REMARK   17  A    between atoms: _47  and  _48
REMARK   18  A    between atoms: _47  and  _50
REMARK   19  A    between atoms: _50  and  _51
REMARK   20  A    between atoms: _54  and  _56
REMARK   21  A    between atoms: _56  and  _57
REMARK   22  A    between atoms: _56  and  _59
REMARK   23  A    between atoms: _59  and  _60
REMARK   24  A    between atoms: _60  and  _61
REMARK   25  A    between atoms: _64  and  _66
REMARK   26  A    between atoms: _66  and  _67
REMARK   27  A    between atoms: _66  and  _69
REMARK   28  A    between atoms: _69  and  _70
REMARK   29  A    between atoms: _73  and  _75
REMARK   30  A    between atoms: _75  and  _76
REMARK   31  A    between atoms: _79  and  _80
REMARK   32  A    between atoms: _85  and  _87
REMARK   33  A    between atoms: _87  and  _88
REMARK   34  A    between atoms: _87  and  _90
REMARK   35  A    between atoms: _90  and  _91
REMARK   36  A    between atoms: _94  and  _96
REMARK   37  A    between atoms: _96  and  _97
REMARK   38  A    between atoms: _100  and  _102
REMARK   39  A    between atoms: _102  and  _103
REMARK   40  A    between atoms: _102  and  _105
REMARK   41  A    between atoms: _105  and  _106
REMARK   42  A    between atoms: _109  and  _111
REMARK   43  A    between atoms: _111  and  _112
REMARK   44  A    between atoms: _114  and  _116
REMARK   45  A    between atoms: _116  and  _117
REMARK   46  A    between atoms: _116  and  _119
REMARK   47  A    between atoms: _119  and  _120
REMARK   48  A    between atoms: _123  and  _125
REMARK   49  A    between atoms: _125  and  _126
REMARK   50  A    between atoms: _125  and  _128
REMARK   51  A    between atoms: _128  and  _129
REMARK   52  A    between atoms: _132  and  _134
REMARK   53  A    between atoms: _134  and  _135
REMARK   54  A    between atoms: _134  and  _137
REMARK   55  A    between atoms: _137  and  _138
REMARK   56  A    between atoms: _143  and  _145
REMARK   57  A    between atoms: _145  and  _146
REMARK   58  A    between atoms: _148  and  _150
REMARK   59  A    between atoms: _150  and  _151
REMARK   60  A    between atoms: _150  and  _153
REMARK   61  A    between atoms: _153  and  _154
REMARK   62  A    between atoms: _157  and  _159
REMARK   63  A    between atoms: _159  and  _160
REMARK   64  A    between atoms: _159  and  _162
REMARK   65  A    between atoms: _162  and  _163
REMARK   66  A    between atoms: _166  and  _168
REMARK   67  A    between atoms: _168  and  _169
REMARK   68  A    between atoms: _168  and  _171
REMARK   69  A    between atoms: _171  and  _172
REMARK   70  A    between atoms: _172  and  _173
REMARK   71  A    between atoms: _175  and  _177
REMARK   72  A    between atoms: _177  and  _178
REMARK   73  A    between atoms: _177  and  _180
REMARK   74  A    between atoms: _180  and  _181
REMARK   75  A    between atoms: _186  and  _187
REMARK   76  A    between atoms: _189  and  _191
REMARK   77  A    between atoms: _191  and  _192
REMARK   78  A    between atoms: _191  and  _194
REMARK   79  A    between atoms: _194  and  _195
REMARK   80  A    between atoms: _198  and  _200
REMARK   81  A    between atoms: _200  and  _201
REMARK   82  A    between atoms: _200  and  _203
REMARK   83  A    between atoms: _206  and  _208
REMARK   84  A    between atoms: _208  and  _209
REMARK   85  A    between atoms: _212  and  _214
REMARK   86  A    between atoms: _214  and  _215
REMARK   87  A    between atoms: _214  and  _217
REMARK   88  A    between atoms: _217  and  _218
REMARK   89  A    between atoms: _221  and  _223
REMARK   90  A    between atoms: _223  and  _224
REMARK   91  A    between atoms: _223  and  _226
REMARK   92  A    between atoms: _229  and  _231
REMARK   93  A    between atoms: _231  and  _232
REMARK   94  A    between atoms: _231  and  _234
REMARK   95  A    between atoms: _234  and  _235
REMARK   96  A    between atoms: _238  and  _240
REMARK   97  A    between atoms: _240  and  _241
REMARK   98  A    between atoms: _240  and  _243
REMARK   99  A    between atoms: _243  and  _244
REMARK  100  A    between atoms: _250  and  _252
REMARK  101  A    between atoms: _252  and  _253
REMARK  102  A    between atoms: _252  and  _255
REMARK  103  A    between atoms: _255  and  _256
REMARK  104  A    between atoms: _259  and  _261
REMARK  105  A    between atoms: _261  and  _262
REMARK  106  A    between atoms: _261  and  _264
REMARK  107  A    between atoms: _266  and  _268
REMARK  108  A    between atoms: _268  and  _269
REMARK  109  A    between atoms: _268  and  _271
REMARK  110  A    between atoms: _271  and  _272
REMARK  111  A    between atoms: _277  and  _278
REMARK  112  A    between atoms: _280  and  _282
REMARK  113  A    between atoms: _282  and  _283
REMARK  114  A    between atoms: _282  and  _285
REMARK  115  A    between atoms: _285  and  _286
REMARK  116  A    between atoms: _291  and  _292
REMARK  117  A    between atoms: _294  and  _296
REMARK  118  A    between atoms: _296  and  _297
REMARK  119  A    between atoms: _296  and  _299
REMARK  120  A    between atoms: _299  and  _300
REMARK  121  A    between atoms: _303  and  _305
REMARK  122  A    between atoms: _305  and  _306
REMARK  123  A    between atoms: _305  and  _308
REMARK  124  A    between atoms: _308  and  _309
REMARK  125  A    between atoms: _312  and  _314
REMARK  126  A    between atoms: _314  and  _315
REMARK  127  A    between atoms: _314  and  _317
REMARK  128  A    between atoms: _317  and  _318
REMARK  129  A    between atoms: _320  and  _322
REMARK  130  A    between atoms: _322  and  _323
REMARK  131  A    between atoms: _322  and  _325
REMARK  132  A    between atoms: _325  and  _326
REMARK  133  A    between atoms: _326  and  _327
REMARK  134  A    between atoms: _327  and  _328
REMARK  135  A    between atoms: _337  and  _339
REMARK  136  A    between atoms: _339  and  _340
REMARK  137  A    between atoms: _342  and  _344
REMARK  138  A    between atoms: _344  and  _345
REMARK  139  A    between atoms: _344  and  _347
REMARK  140  A    between atoms: _350  and  _352
REMARK  141  A    between atoms: _352  and  _353
REMARK  142  A    between atoms: _352  and  _355
REMARK  143  A    between atoms: _355  and  _356
REMARK  144  A    between atoms: _359  and  _361
REMARK  145  A    between atoms: _361  and  _362
REMARK  146  A    between atoms: _364  and  _366
REMARK  147  A    between atoms: _366  and  _367
REMARK  148  A    between atoms: _366  and  _369
REMARK  149  A    between atoms: _369  and  _370
REMARK  150  A    between atoms: _373  and  _375
REMARK  151  A    between atoms: _375  and  _376
REMARK  152  A    between atoms: _375  and  _378
REMARK  153  A    between atoms: _378  and  _379
REMARK  154  A    between atoms: _379  and  _380
REMARK  155  A    between atoms: _385  and  _387
REMARK  156  A    between atoms: _387  and  _388
REMARK  157  A    between atoms: _390  and  _392
REMARK  158  A    between atoms: _392  and  _393
REMARK  159  A    between atoms: _392  and  _395
REMARK  160  A    between atoms: _395  and  _396
REMARK  161  A    between atoms: _402  and  _404
REMARK  162  A    between atoms: _404  and  _405
REMARK  163  A    between atoms: _407  and  _409
REMARK  164  A    between atoms: _409  and  _410
REMARK  165  A    between atoms: _409  and  _412
REMARK  166  A    between atoms: _412  and  _413
REMARK  167  A    between atoms: _416  and  _418
REMARK  168  A    between atoms: _418  and  _419
REMARK  169  A    between atoms: _418  and  _421
REMARK  170  A    between atoms: _421  and  _422
REMARK  171  A    between atoms: _424  and  _426
REMARK  172  A    between atoms: _426  and  _427
REMARK  173  A    between atoms: _426  and  _429
REMARK  174  A    between atoms: _429  and  _430
REMARK  175  A    between atoms: _430  and  _431
REMARK  176  A    between atoms: _436  and  _438
REMARK  177  A    between atoms: _438  and  _439
REMARK  178  A    between atoms: _438  and  _441
REMARK  179  A    between atoms: _441  and  _442
REMARK  180  A    between atoms: _445  and  _447
REMARK  181  A    between atoms: _447  and  _448
REMARK  182  A    between atoms: _447  and  _450
REMARK  183  A    between atoms: _450  and  _451
REMARK  184  A    between atoms: _453  and  _455
REMARK  185  A    between atoms: _455  and  _456
REMARK  186  A    between atoms: _458  and  _460
REMARK  187  A    between atoms: _460  and  _461
REMARK  188  A    between atoms: _460  and  _463
REMARK  189  A    between atoms: _463  and  _464
REMARK  190  A    between atoms: _466  and  _468
REMARK  191  A    between atoms: _468  and  _469
REMARK  192  A    between atoms: _472  and  _474
REMARK  193  A    between atoms: _474  and  _475
REMARK  194  A    between atoms: _474  and  _477
REMARK  195  A    between atoms: _477  and  _478
REMARK  196  A    between atoms: _481  and  _483
REMARK  197  A    between atoms: _483  and  _484
REMARK  198  A    between atoms: _483  and  _486
REMARK  199  A    between atoms: _489  and  _491
REMARK  200  A    between atoms: _491  and  _492
REMARK  201  A    between atoms: _491  and  _494
REMARK  202  A    between atoms: _494  and  _495
REMARK  203  A    between atoms: _495  and  _496
REMARK  204  A    between atoms: _496  and  _497
REMARK  205  A    between atoms: _497  and  _498
REMARK  206  A    between atoms: _502  and  _504
REMARK  207  A    between atoms: _504  and  _505
REMARK  208  A    between atoms: _504  and  _507
REMARK  209  A    between atoms: _511  and  _512
REMARK  210  A    between atoms: _517  and  _519
REMARK  211  A    between atoms: _519  and  _520
REMARK  212  A    between atoms: _519  and  _522
REMARK  213  A    between atoms: _522  and  _523
REMARK  214  A    between atoms: _523  and  _524
REMARK  215  A    between atoms: _529  and  _531
REMARK  216  A    between atoms: _531  and  _532
REMARK  217  A    between atoms: _531  and  _534
REMARK  218  A    between atoms: _534  and  _535
REMARK  219  A    between atoms: _538  and  _540
REMARK  220  A    between atoms: _540  and  _541
REMARK  221  A    between atoms: _540  and  _543
REMARK  222  A    between atoms: _543  and  _544
REMARK                            x       y       z     vdW  Elec       q    Type
REMARK                         _______ _______ _______ _____ _____    ______ ____
ROOT
ATOM      1  CB  ASN A   1      58.983  32.905  17.245  0.00  0.00    +0.110 C 
ENDROOT
BRANCH   1   2
ATOM      2  CG  ASN A   1      57.854  31.947  17.569  0.00  0.00    +0.221 C 
ATOM      3  OD1 ASN A   1      57.569  31.686  18.735  0.00  0.00    -0.275 OA
ATOM      4  ND2 ASN A   1      57.196  31.426  16.535  0.00  0.00    -0.329 N 
ATOM      5 HD21 ASN A   1      56.406  30.770  16.699  0.00  0.00    +0.145 HD
ATOM      6 HD22 ASN A   1      57.472  31.675  15.564  0.00  0.00    +0.145 HD
ENDBRANCH   1   2
BRANCH   1   7
ATOM      7  CA  ASN A   1      58.596  34.368  17.478  0.00  0.00    +0.142 C 
BRANCH   7   8
ATOM      8  N   ASN A   1      57.759  34.843  16.381  0.00  0.00    -0.239 NA
ATOM      9  H   ASN A   1      57.568  34.213  15.576  0.00  0.00    +0.142 HD
ENDBRANCH   7   8
BRANCH   7  10
ATOM     10  C   ASN A   1      59.851  35.229  17.571  0.00  0.00    +0.225 C 
ATOM     11  O   ASN A   1      60.285  35.605  18.662  0.00  0.00    -0.287 OA
ENDBRANCH   7  10
ENDBRANCH   1   7
TORSDOF 4
REMARK  Name = ../refined-set-2016/2clh/2clh_pocket.pdb
REMARK  222 active torsions:
REMARK  status: ('A' for Active; 'I' for Inactive)
REMARK    1  A    between atoms: _1  and  _3
REMARK    2  A    between atoms: _3  and  _4
REMARK    3  A    between atoms: _3  and  _6
REMARK    4  A    between atoms: _10  and  _11
REMARK    5  A    between atoms: _16  and  _18
REMARK    6  A    between atoms: _18  and  _19
REMARK    7  A    between atoms: _18  and  _21
REMARK    8  A    between atoms: _21  and  _22
REMARK    9  A    between atoms: _28  and  _30
REMARK   10  A    between atoms: _30  and  _31
REMARK   11  A    between atoms: _30  and  _33
REMARK   12  A    between atoms: _36  and  _38
REMARK   13  A    between atoms: _38  and  _39
REMARK   14  A    between atoms: _38  and  _41
REMARK   15  A    between atoms: _41  and  _42
REMARK   16  A    between atoms: _45  and  _47
REMARK   17  A    between atoms: _47  and  _48
REMARK   18  A    between atoms: _47  and  _50
REMARK   19  A    between atoms: _50  and  _51
REMARK   20  A    between atoms: _54  and  _56
REMARK   21  A    between atoms: _56  and  _57
REMARK   22  A    between atoms: _56  and  _59
REMARK   23  A    between atoms: _59  and  _60
REMARK   24  A    between atoms: _60  and  _61
REMARK   25  A    between atoms: _64  and  _66
REMARK   26  A    between atoms: _66  and  _67
REMARK   27  A    between atoms: _66  and  _69
REMARK   28  A    between atoms: _69  and  _70
REMARK   29  A    between atoms: _73  and  _75
REMARK   30  A    between atoms: _75  and  _76
REMARK   31  A    between atoms: _79  and  _80
REMARK   32  A    between atoms: _85  and  _87
REMARK   33  A    between atoms: _87  and  _88
REMARK   34  A    between atoms: _87  and  _90
REMARK   35  A    between atoms: _90  and  _91
REMARK   36  A    between atoms: _94  and  _96
REMARK   37  A    between atoms: _96  and  _97
REMARK   38  A    between atoms: _100  and  _102
REMARK   39  A    between atoms: _102  and  _103
REMARK   40  A    between atoms: _102  and  _105
REMARK   41  A    between atoms: _105  and  _106
REMARK   42  A    between atoms: _109  and  _111
REMARK   43  A    between atoms: _111  and  _112
REMARK   44  A    between atoms: _114  and  _116
REMARK   45  A    between atoms: _116  and  _117
REMARK   46  A    between atoms: _116  and  _119
REMARK   47  A    between atoms: _119  and  _120
REMARK   48  A    between atoms: _123  and  _125
REMARK   49  A    between atoms: _125  and  _126
REMARK   50  A    between atoms: _125  and  _128
REMARK   51  A    between atoms: _128  and  _129
REMARK   52  A    between atoms: _132  and  _134
REMARK   53  A    between atoms: _134  and  _135
REMARK   54  A    between atoms: _134  and  _137
REMARK   55  A    between atoms: _137  and  _138
REMARK   56  A    between atoms: _143  and  _145
REMARK   57  A    between atoms: _145  and  _146
REMARK   58  A    between atoms: _148  and  _150
REMARK   59  A    between atoms: _150  and  _151
REMARK   60  A    between atoms: _150  and  _153
REMARK   61  A    between atoms: _153  and  _154
REMARK   62  A    between atoms: _157  and  _159
REMARK   63  A    between atoms: _159  and  _160
REMARK   64  A    between atoms: _159  and  _162
REMARK   65  A    between atoms: _162  and  _163
REMARK   66  A    between atoms: _166  and  _168
REMARK   67  A    between atoms: _168  and  _169
REMARK   68  A    between atoms: _168  and  _171
REMARK   69  A    between atoms: _171  and  _172
REMARK   70  A    between atoms: _172  and  _173
REMARK   71  A    between atoms: _175  and  _177
REMARK   72  A    between atoms: _177  and  _178
REMARK   73  A    between atoms: _177  and  _180
REMARK   74  A    between atoms: _180  and  _181
REMARK   75  A    between atoms: _186  and  _187
REMARK   76  A    between atoms: _189  and  _191
REMARK   77  A    between atoms: _191  and  _192
REMARK   78  A    between atoms: _191  and  _194
REMARK   79  A    between atoms: _194  and  _195
REMARK   80  A    between atoms: _198  and  _200
REMARK   81  A    between atoms: _200  and  _201
REMARK   82  A    between atoms: _200  and  _203
REMARK   83  A    between atoms: _206  and  _208
REMARK   84  A    between atoms: _208  and  _209
REMARK   85  A    between atoms: _212  and  _214
REMARK   86  A    between atoms: _214  and  _215
REMARK   87  A    between atoms: _214  and  _217
REMARK   88  A    between atoms: _217  and  _218
REMARK   89  A    between atoms: _221  and  _223
REMARK   90  A    between atoms: _223  and  _224
REMARK   91  A    between atoms: _223  and  _226
REMARK   92  A    between atoms: _229  and  _231
REMARK   93  A    between atoms: _231  and  _232
REMARK   94  A    between atoms: _231  and  _234
REMARK   95  A    between atoms: _234  and  _235
REMARK   96  A    between atoms: _238  and  _240
REMARK   97  A    between atoms: _240  and  _241
REMARK   98  A    between atoms: _240  and  _243
REMARK   99  A    between atoms: _243  and  _244
REMARK  100  A    between atoms: _250  and  _252
REMARK  101  A    between atoms: _252  and  _253
REMARK  102  A    between atoms: _252  and  _255
REMARK  103  A    between atoms: _255  and  _256
REMARK  104  A    between atoms: _259  and  _261
REMARK  105  A    between atoms: _261  and  _262
REMARK  106  A    between atoms: _261  and  _264
REMARK  107  A    between atoms: _266  and  _268
REMARK  108  A    between atoms: _268  and  _269
REMARK  109  A    between atoms: _268  and  _271
REMARK  110  A    between atoms: _271  and  _272
REMARK  111  A    between atoms: _277  and  _278
REMARK  112  A    between atoms: _280  and  _282
REMARK  113  A    between atoms: _282  and  _283
REMARK  114  A    between atoms: _282  and  _285
REMARK  115  A    between atoms: _285  and  _286
REMARK  116  A    between atoms: _291  and  _292
REMARK  117  A    between atoms: _294  and  _296
REMARK  118  A    between atoms: _296  and  _297
REMARK  119  A    between atoms: _296  and  _299
REMARK  120  A    between atoms: _299  and  _300
REMARK  121  A    between atoms: _303  and  _305
REMARK  122  A    between atoms: _305  and  _306
REMARK  123  A    between atoms: _305  and  _308
REMARK  124  A    between atoms: _308  and  _309
REMARK  125  A    between atoms: _312  and  _314
REMARK  126  A    between atoms: _314  and  _315
REMARK  127  A    between atoms: _314  and  _317
REMARK  128  A    between atoms: _317  and  _318
REMARK  129  A    between atoms: _320  and  _322
REMARK  130  A    between atoms: _322  and  _323
REMARK  131  A    between atoms: _322  and  _325
REMARK  132  A    between atoms: _325  and  _326
REMARK  133  A    between atoms: _326  and  _327
REMARK  134  A    between atoms: _327  and  _328
REMARK  135  A    between atoms: _337  and  _339
REMARK  136  A    between atoms: _339  and  _340
REMARK  137  A    between atoms: _342  and  _344
REMARK  138  A    between atoms: _344  and  _345
REMARK  139  A    between atoms: _344  and  _347
REMARK  140  A    between atoms: _350  and  _352
REMARK  141  A    between atoms: _352  and  _353
REMARK  142  A    between atoms: _352  and  _355
REMARK  143  A    between atoms: _355  and  _356
REMARK  144  A    between atoms: _359  and  _361
REMARK  145  A    between atoms: _361  and  _362
REMARK  146  A    between atoms: _364  and  _366
REMARK  147  A    between atoms: _366  and  _367
REMARK  148  A    between atoms: _366  and  _369
REMARK  149  A    between atoms: _369  and  _370
REMARK  150  A    between atoms: _373  and  _375
REMARK  151  A    between atoms: _375  and  _376
REMARK  152  A    between atoms: _375  and  _378
REMARK  153  A    between atoms: _378  and  _379
REMARK  154  A    between atoms: _379  and  _380
REMARK  155  A    between atoms: _385  and  _387
REMARK  156  A    between atoms: _387  and  _388
REMARK  157  A    between atoms: _390  and  _392
REMARK  158  A    between atoms: _392  and  _393
REMARK  159  A    between atoms: _392  and  _395
REMARK  160  A    between atoms: _395  and  _396
REMARK  161  A    between atoms: _402  and  _404
REMARK  162  A    between atoms: _404  and  _405
REMARK  163  A    between atoms: _407  and  _409
REMARK  164  A    between atoms: _409  and  _410
REMARK  165  A    between atoms: _409  and  _412
REMARK  166  A    between atoms: _412  and  _413
REMARK  167  A    between atoms: _416  and  _418
REMARK  168  A    between atoms: _418  and  _419
REMARK  169  A    between atoms: _418  and  _421
REMARK  170  A    between atoms: _421  and  _422
REMARK  171  A    between atoms: _424  and  _426
REMARK  172  A    between atoms: _426  and  _427
REMARK  173  A    between atoms: _426  and  _429
REMARK  174  A    between atoms: _429  and  _430
REMARK  175  A    between atoms: _430  and  _431
REMARK  176  A    between atoms: _436  and  _438
REMARK  177  A    between atoms: _438  and  _439
REMARK  178  A    between atoms: _438  and  _441
REMARK  179  A    between atoms: _441  and  _442
REMARK  180  A    between atoms: _445  and  _447
REMARK  181  A    between atoms: _447  and  _448
REMARK  182  A    between atoms: _447  and  _450
REMARK  183  A    between atoms: _450  and  _451
REMARK  184  A    between atoms: _453  and  _455
REMARK  185  A    between atoms: _455  and  _456
REMARK  186  A    between atoms: _458  and  _460
REMARK  187  A    between atoms: _460  and  _461
REMARK  188  A    between atoms: _460  and  _463
REMARK  189  A    between atoms: _463  and  _464
REMARK  190  A    between atoms: _466  and  _468
REMARK  191  A    between atoms: _468  and  _469
REMARK  192  A    between atoms: _472  and  _474
REMARK  193  A    between atoms: _474  and  _475
REMARK  194  A    between atoms: _474  and  _477
REMARK  195  A    between atoms: _477  and  _478
REMARK  196  A    between atoms: _481  and  _483
REMARK  197  A    between atoms: _483  and  _484
REMARK  198  A    between atoms: _483  and  _486
REMARK  199  A    between atoms: _489  and  _491
REMARK  200  A    between atoms: _491  and  _492
REMARK  201  A    between atoms: _491  and  _494
REMARK  202  A    between atoms: _494  and  _495
REMARK  203  A    between atoms: _495  and  _496
REMARK  204  A    between atoms: _496  and  _497
REMARK  205  A    between atoms: _497  and  _498
REMARK  206  A    between atoms: _502  and  _504
REMARK  207  A    between atoms: _504  and  _505
REMARK  208  A    between atoms: _504  and  _507
REMARK  209  A    between atoms: _511  and  _512
REMARK  210  A    between atoms: _517  and  _519
REMARK  211  A    between atoms: _519  and  _520
REMARK  212  A    between atoms: _519  and  _522
REMARK  213  A    between atoms: _522  and  _523
REMARK  214  A    between atoms: _523  and  _524
REMARK  215  A    between atoms: _529  and  _531
REMARK  216  A    between atoms: _531  and  _532
REMARK  217  A    between atoms: _531  and  _534
REMARK  218  A    between atoms: _534  and  _535
REMARK  219  A    between atoms: _538  and  _540
REMARK  220  A    between atoms: _540  and  _541
REMARK  221  A    between atoms: _540  and  _543
REMARK  222  A    between atoms: _543  and  _544
REMARK                            x       y       z     vdW  Elec       q    Type
REMARK                         _______ _______ _______ _____ _____    ______ ____
ROOT
ATOM      1  C   LEU A   3      51.917  26.280  21.764  0.00  0.00    +0.241 C 
ATOM      2  N   MET A   4      52.327  25.073  22.135  0.00  0.00    -0.297 N 
ATOM      3  H   MET A   4      51.686  24.262  22.018  0.00  0.00    +0.150 HD
ATOM      4  O   LEU A   3      52.621  27.288  21.852  0.00  0.00    -0.273 OA
ENDROOT
BRANCH   2   5
ATOM      5  CA  MET A   4      53.649  24.855  22.701  0.00  0.00    +0.149 C 
BRANCH   5   6
ATOM      6  C   MET A   4      54.506  23.917  21.867  0.00  0.00    +0.241 C 
ATOM      7  N   TYR A   5      55.792  23.921  22.179  0.00  0.00    -0.298 N 
ATOM      8  H   TYR A   5      56.133  24.596  22.893  0.00  0.00    +0.150 HD
ATOM      9  O   MET A   4      54.023  23.220  20.977  0.00  0.00    -0.273 OA
BRANCH   7  10
ATOM     10  CA  TYR A   5      56.741  23.018  21.560  0.00  0.00    +0.141 C 
BRANCH  10  11
ATOM     11  C   TYR A   5      57.202  22.228  22.774  0.00  0.00    +0.227 C 
ATOM     12  O   TYR A   5      57.326  22.780  23.872  0.00  0.00    -0.286 OA
ENDBRANCH  10  11
BRANCH  10  13
ATOM     13  CB  TYR A   5      57.868  23.789  20.871  0.00  0.00    +0.054 C 
BRANCH  13  14
ATOM     14  CG  TYR A   5      57.496  24.149  19.453  0.00  0.00    -0.020 A 
ATOM     15  CD2 TYR A   5      56.946  25.392  19.143  0.00  0.00    -0.001 A 
ATOM     16  CE2 TYR A   5      56.534  25.694  17.841  0.00  0.00    +0.036 A 
ATOM     17  CZ  TYR A   5      56.680  24.745  16.841  0.00  0.00    +0.134 A 
ATOM     18  CE1 TYR A   5      57.226  23.506  17.128  0.00  0.00    +0.036 A 
ATOM     19  CD1 TYR A   5      57.630  23.216  18.426  0.00  0.00    -0.001 A 
BRANCH  17  20
ATOM     20  OH  TYR A   5      56.295  25.033  15.551  0.00  0.00    -0.506 OA
ATOM     21  HH  TYR A   5      55.329  25.247  15.536  0.00  0.00    +0.292 HD
ENDBRANCH  17  20
ENDBRANCH  13  14
ENDBRANCH  10  13
ENDBRANCH   7  10
ENDBRANCH   5   6
BRANCH   5  22
ATOM     22  CB  MET A   4      53.533  24.230  24.100  0.00  0.00    +0.041 C 
BRANCH  22  23
ATOM     23  CG  MET A   4      52.707  25.001  25.118  0.00  0.00    +0.060 C 
BRANCH  23  24
ATOM     24  SD  MET A   4      53.372  26.635  25.377  0.00  0.00    -0.139 S 
ATOM     25  CE  MET A   4      54.986  26.237  26.057  0.00  0.00    +0.069 C 
ENDBRANCH  23  24
ENDBRANCH  22  23
ENDBRANCH   5  22
ENDBRANCH   2   5
BRANCH   1  26
ATOM     26  CA  LEU A   3      50.495  26.368  21.235  0.00  0.00    +0.149 C 
BRANCH  26  29
ATOM     27  C   LEU A   2      48.963  26.549  23.115  0.00  0.00    +0.241 C 
ATOM     28  O   LEU A   2      48.572  25.386  22.996  0.00  0.00    -0.273 OA
ATOM     29  N   LEU A   3      49.840  27.116  22.296  0.00  0.00    -0.297 N 
ATOM     30  H   LEU A   3      50.065  28.124  22.417  0.00  0.00    +0.150 HD
BRANCH  27  31
ATOM     31  CA  LEU A   2      48.428  27.436  24.221  0.00  0.00    +0.149 C 
BRANCH  31  33
ATOM     32  C   GLY A   1      46.061  27.871  24.032  0.00  0.00    +0.240 C 
ATOM     33  N   LEU A   2      47.038  27.103  24.493  0.00  0.00    -0.297 N 
ATOM     34  H   LEU A   2      46.810  26.257  25.053  0.00  0.00    +0.150 HD
ATOM     35  O   GLY A   1      46.271  28.903  23.400  0.00  0.00    -0.274 OA
BRANCH  32  36
ATOM     36  CA  GLY A   1      44.646  27.435  24.342  0.00  0.00    +0.169 C 
BRANCH  36  37
ATOM     37  N   GLY A   1      43.840  28.599  24.651  0.00  0.00    -0.236 NA
ATOM     38  H   GLY A   1      43.662  29.317  23.920  0.00  0.00    +0.142 HD
ENDBRANCH  36  37
ENDBRANCH  32  36
ENDBRANCH  31  33
BRANCH  31  39
ATOM     39  CB  LEU A   2      49.294  27.228  25.464  0.00  0.00    +0.029 C 
BRANCH  39  40
ATOM     40  CG  LEU A   2      48.967  28.050  26.709  0.00  0.00    +0.002 C 
ATOM     41  CD2 LEU A   2      50.022  27.780  27.780  0.00  0.00    +0.000 C 
ATOM     42  CD1 LEU A   2      48.938  29.531  26.346  0.00  0.00    +0.000 C 
ENDBRANCH  39  40
ENDBRANCH  31  39
ENDBRANCH  27  31
ENDBRANCH  26  29
BRANCH  26  43
ATOM     43  CB  LEU A   3      50.462  27.131  19.904  0.00  0.00    +0.029 C 
BRANCH  43  44
ATOM     44  CG  LEU A   3      51.151  26.445  18.714  0.00  0.00    +0.002 C 
ATOM     45  CD2 LEU A   3      52.656  26.540  18.849  0.00  0.00    +0.000 C 
ATOM     46  CD1 LEU A   3      50.710  24.990  18.638  0.00  0.00    +0.000 C 
ENDBRANCH  43  44
ENDBRANCH  26  43
ENDBRANCH   1  26
TORSDOF 20
REMARK  Name = ../refined-set-2016/2clh/2clh_pocket.pdb
REMARK  222 active torsions:
REMARK  status: ('A' for Active; 'I' for Inactive)
REMARK    1  A    between atoms: _1  and  _3
REMARK    2  A    between atoms: _3  and  _4
REMARK    3  A    between atoms: _3  and  _6
REMARK    4  A    between atoms: _10  and  _11
REMARK    5  A    between atoms: _16  and  _18
REMARK    6  A    between atoms: _18  and  _19
REMARK    7  A    between atoms: _18  and  _21
REMARK    8  A    between atoms: _21  and  _22
REMARK    9  A    between atoms: _28  and  _30
REMARK   10  A    between atoms: _30  and  _31
REMARK   11  A    between atoms: _30  and  _33
REMARK   12  A    between atoms: _36  and  _38
REMARK   13  A    between atoms: _38  and  _39
REMARK   14  A    between atoms: _38  and  _41
REMARK   15  A    between atoms: _41  and  _42
REMARK   16  A    between atoms: _45  and  _47
REMARK   17  A    between atoms: _47  and  _48
REMARK   18  A    between atoms: _47  and  _50
REMARK   19  A    between atoms: _50  and  _51
REMARK   20  A    between atoms: _54  and  _56
REMARK   21  A    between atoms: _56  and  _57
REMARK   22  A    between atoms: _56  and  _59
REMARK   23  A    between atoms: _59  and  _60
REMARK   24  A    between atoms: _60  and  _61
REMARK   25  A    between atoms: _64  and  _66
REMARK   26  A    between atoms: _66  and  _67
REMARK   27  A    between atoms: _66  and  _69
REMARK   28  A    between atoms: _69  and  _70
REMARK   29  A    between atoms: _73  and  _75
REMARK   30  A    between atoms: _75  and  _76
REMARK   31  A    between atoms: _79  and  _80
REMARK   32  A    between atoms: _85  and  _87
REMARK   33  A    between atoms: _87  and  _88
REMARK   34  A    between atoms: _87  and  _90
REMARK   35  A    between atoms: _90  and  _91
REMARK   36  A    between atoms: _94  and  _96
REMARK   37  A    between atoms: _96  and  _97
REMARK   38  A    between atoms: _100  and  _102
REMARK   39  A    between atoms: _102  and  _103
REMARK   40  A    between atoms: _102  and  _105
REMARK   41  A    between atoms: _105  and  _106
REMARK   42  A    between atoms: _109  and  _111
REMARK   43  A    between atoms: _111  and  _112
REMARK   44  A    between atoms: _114  and  _116
REMARK   45  A    between atoms: _116  and  _117
REMARK   46  A    between atoms: _116  and  _119
REMARK   47  A    between atoms: _119  and  _120
REMARK   48  A    between atoms: _123  and  _125
REMARK   49  A    between atoms: _125  and  _126
REMARK   50  A    between atoms: _125  and  _128
REMARK   51  A    between atoms: _128  and  _129
REMARK   52  A    between atoms: _132  and  _134
REMARK   53  A    between atoms: _134  and  _135
REMARK   54  A    between atoms: _134  and  _137
REMARK   55  A    between atoms: _137  and  _138
REMARK   56  A    between atoms: _143  and  _145
REMARK   57  A    between atoms: _145  and  _146
REMARK   58  A    between atoms: _148  and  _150
REMARK   59  A    between atoms: _150  and  _151
REMARK   60  A    between atoms: _150  and  _153
REMARK   61  A    between atoms: _153  and  _154
REMARK   62  A    between atoms: _157  and  _159
REMARK   63  A    between atoms: _159  and  _160
REMARK   64  A    between atoms: _159  and  _162
REMARK   65  A    between atoms: _162  and  _163
REMARK   66  A    between atoms: _166  and  _168
REMARK   67  A    between atoms: _168  and  _169
REMARK   68  A    between atoms: _168  and  _171
REMARK   69  A    between atoms: _171  and  _172
REMARK   70  A    between atoms: _172  and  _173
REMARK   71  A    between atoms: _175  and  _177
REMARK   72  A    between atoms: _177  and  _178
REMARK   73  A    between atoms: _177  and  _180
REMARK   74  A    between atoms: _180  and  _181
REMARK   75  A    between atoms: _186  and  _187
REMARK   76  A    between atoms: _189  and  _191
REMARK   77  A    between atoms: _191  and  _192
REMARK   78  A    between atoms: _191  and  _194
REMARK   79  A    between atoms: _194  and  _195
REMARK   80  A    between atoms: _198  and  _200
REMARK   81  A    between atoms: _200  and  _201
REMARK   82  A    between atoms: _200  and  _203
REMARK   83  A    between atoms: _206  and  _208
REMARK   84  A    between atoms: _208  and  _209
REMARK   85  A    between atoms: _212  and  _214
REMARK   86  A    between atoms: _214  and  _215
REMARK   87  A    between atoms: _214  and  _217
REMARK   88  A    between atoms: _217  and  _218
REMARK   89  A    between atoms: _221  and  _223
REMARK   90  A    between atoms: _223  and  _224
REMARK   91  A    between atoms: _223  and  _226
REMARK   92  A    between atoms: _229  and  _231
REMARK   93  A    between atoms: _231  and  _232
REMARK   94  A    between atoms: _231  and  _234
REMARK   95  A    between atoms: _234  and  _235
REMARK   96  A    between atoms: _238  and  _240
REMARK   97  A    between atoms: _240  and  _241
REMARK   98  A    between atoms: _240  and  _243
REMARK   99  A    between atoms: _243  and  _244
REMARK  100  A    between atoms: _250  and  _252
REMARK  101  A    between atoms: _252  and  _253
REMARK  102  A    between atoms: _252  and  _255
REMARK  103  A    between atoms: _255  and  _256
REMARK  104  A    between atoms: _259  and  _261
REMARK  105  A    between atoms: _261  and  _262
REMARK  106  A    between atoms: _261  and  _264
REMARK  107  A    between atoms: _266  and  _268
REMARK  108  A    between atoms: _268  and  _269
REMARK  109  A    between atoms: _268  and  _271
REMARK  110  A    between atoms: _271  and  _272
REMARK  111  A    between atoms: _277  and  _278
REMARK  112  A    between atoms: _280  and  _282
REMARK  113  A    between atoms: _282  and  _283
REMARK  114  A    between atoms: _282  and  _285
REMARK  115  A    between atoms: _285  and  _286
REMARK  116  A    between atoms: _291  and  _292
REMARK  117  A    between atoms: _294  and  _296
REMARK  118  A    between atoms: _296  and  _297
REMARK  119  A    between atoms: _296  and  _299
REMARK  120  A    between atoms: _299  and  _300
REMARK  121  A    between atoms: _303  and  _305
REMARK  122  A    between atoms: _305  and  _306
REMARK  123  A    between atoms: _305  and  _308
REMARK  124  A    between atoms: _308  and  _309
REMARK  125  A    between atoms: _312  and  _314
REMARK  126  A    between atoms: _314  and  _315
REMARK  127  A    between atoms: _314  and  _317
REMARK  128  A    between atoms: _317  and  _318
REMARK  129  A    between atoms: _320  and  _322
REMARK  130  A    between atoms: _322  and  _323
REMARK  131  A    between atoms: _322  and  _325
REMARK  132  A    between atoms: _325  and  _326
REMARK  133  A    between atoms: _326  and  _327
REMARK  134  A    between atoms: _327  and  _328
REMARK  135  A    between atoms: _337  and  _339
REMARK  136  A    between atoms: _339  and  _340
REMARK  137  A    between atoms: _342  and  _344
REMARK  138  A    between atoms: _344  and  _345
REMARK  139  A    between atoms: _344  and  _347
REMARK  140  A    between atoms: _350  and  _352
REMARK  141  A    between atoms: _352  and  _353
REMARK  142  A    between atoms: _352  and  _355
REMARK  143  A    between atoms: _355  and  _356
REMARK  144  A    between atoms: _359  and  _361
REMARK  145  A    between atoms: _361  and  _362
REMARK  146  A    between atoms: _364  and  _366
REMARK  147  A    between atoms: _366  and  _367
REMARK  148  A    between atoms: _366  and  _369
REMARK  149  A    between atoms: _369  and  _370
REMARK  150  A    between atoms: _373  and  _375
REMARK  151  A    between atoms: _375  and  _376
REMARK  152  A    between atoms: _375  and  _378
REMARK  153  A    between atoms: _378  and  _379
REMARK  154  A    between atoms: _379  and  _380
REMARK  155  A    between atoms: _385  and  _387
REMARK  156  A    between atoms: _387  and  _388
REMARK  157  A    between atoms: _390  and  _392
REMARK  158  A    between atoms: _392  and  _393
REMARK  159  A    between atoms: _392  and  _395
REMARK  160  A    between atoms: _395  and  _396
REMARK  161  A    between atoms: _402  and  _404
REMARK  162  A    between atoms: _404  and  _405
REMARK  163  A    between atoms: _407  and  _409
REMARK  164  A    between atoms: _409  and  _410
REMARK  165  A    between atoms: _409  and  _412
REMARK  166  A    between atoms: _412  and  _413
REMARK  167  A    between atoms: _416  and  _418
REMARK  168  A    between atoms: _418  and  _419
REMARK  169  A    between atoms: _418  and  _421
REMARK  170  A    between atoms: _421  and  _422
REMARK  171  A    between atoms: _424  and  _426
REMARK  172  A    between atoms: _426  and  _427
REMARK  173  A    between atoms: _426  and  _429
REMARK  174  A    between atoms: _429  and  _430
REMARK  175  A    between atoms: _430  and  _431
REMARK  176  A    between atoms: _436  and  _438
REMARK  177  A    between atoms: _438  and  _439
REMARK  178  A    between atoms: _438  and  _441
REMARK  179  A    between atoms: _441  and  _442
REMARK  180  A    between atoms: _445  and  _447
REMARK  181  A    between atoms: _447  and  _448
REMARK  182  A    between atoms: _447  and  _450
REMARK  183  A    between atoms: _450  and  _451
REMARK  184  A    between atoms: _453  and  _455
REMARK  185  A    between atoms: _455  and  _456
REMARK  186  A    between atoms: _458  and  _460
REMARK  187  A    between atoms: _460  and  _461
REMARK  188  A    between atoms: _460  and  _463
REMARK  189  A    between atoms: _463  and  _464
REMARK  190  A    between atoms: _466  and  _468
REMARK  191  A    between atoms: _468  and  _469
REMARK  192  A    between atoms: _472  and  _474
REMARK  193  A    between atoms: _474  and  _475
REMARK  194  A    between atoms: _474  and  _477
REMARK  195  A    between atoms: _477  and  _478
REMARK  196  A    between atoms: _481  and  _483
REMARK  197  A    between atoms: _483  and  _484
REMARK  198  A    between atoms: _483  and  _486
REMARK  199  A    between atoms: _489  and  _491
REMARK  200  A    between atoms: _491  and  _492
REMARK  201  A    between atoms: _491  and  _494
REMARK  202  A    between atoms: _494  and  _495
REMARK  203  A    between atoms: _495  and  _496
REMARK  204  A    between atoms: _496  and  _497
REMARK  205  A    between atoms: _497  and  _498
REMARK  206  A    between atoms: _502  and  _504
REMARK  207  A    between atoms: _504  and  _505
REMARK  208  A    between atoms: _504  and  _507
REMARK  209  A    between atoms: _511  and  _512
REMARK  210  A    between atoms: _517  and  _519
REMARK  211  A    between atoms: _519  and  _520
REMARK  212  A    between atoms: _519  and  _522
REMARK  213  A    between atoms: _522  and  _523
REMARK  214  A    between atoms: _523  and  _524
REMARK  215  A    between atoms: _529  and  _531
REMARK  216  A    between atoms: _531  and  _532
REMARK  217  A    between atoms: _531  and  _534
REMARK  218  A    between atoms: _534  and  _535
REMARK  219  A    between atoms: _538  and  _540
REMARK  220  A    between atoms: _540  and  _541
REMARK  221  A    between atoms: _540  and  _543
REMARK  222  A    between atoms: _543  and  _544
REMARK                            x       y       z     vdW  Elec       q    Type
REMARK                         _______ _______ _______ _____ _____    ______ ____
ROOT
ATOM      1  CA  ALA A   3      53.169  20.882  18.168  0.00  0.00    +0.149 C 
ATOM      2  CB  ALA A   3      53.786  22.138  17.580  0.00  0.00    +0.031 C 
ENDROOT
BRANCH   1   5
ATOM      3  C   VAL A   2      52.478  20.122  20.393  0.00  0.00    +0.241 C 
ATOM      4  O   VAL A   2      52.243  18.974  20.011  0.00  0.00    -0.273 OA
ATOM      5  N   ALA A   3      52.936  21.080  19.595  0.00  0.00    -0.297 N 
ATOM      6  H   ALA A   3      53.138  22.014  20.006  0.00  0.00    +0.150 HD
BRANCH   3   7
ATOM      7  CA  VAL A   2      52.235  20.540  21.839  0.00  0.00    +0.148 C 
BRANCH   7   9
ATOM      8  C   LEU A   1      50.149  21.768  21.867  0.00  0.00    +0.238 C 
ATOM      9  N   VAL A   2      50.784  20.602  21.968  0.00  0.00    -0.297 N 
ATOM     10  H   VAL A   2      50.242  19.731  22.140  0.00  0.00    +0.150 HD
ATOM     11  O   LEU A   1      50.742  22.838  21.732  0.00  0.00    -0.274 OA
BRANCH   8  12
ATOM     12  CA  LEU A   1      48.631  21.743  21.985  0.00  0.00    +0.145 C 
BRANCH  12  13
ATOM     13  N   LEU A   1      48.332  22.538  23.161  0.00  0.00    -0.238 NA
ATOM     14  H   LEU A   1      48.550  23.555  23.157  0.00  0.00    +0.142 HD
ENDBRANCH  12  13
BRANCH  12  15
ATOM     15  CB  LEU A   1      47.981  22.363  20.739  0.00  0.00    +0.026 C 
BRANCH  15  16
ATOM     16  CG  LEU A   1      48.102  21.620  19.403  0.00  0.00    +0.002 C 
ATOM     17  CD2 LEU A   1      49.553  21.598  18.941  0.00  0.00    +0.000 C 
ATOM     18  CD1 LEU A   1      47.224  22.301  18.357  0.00  0.00    +0.000 C 
ENDBRANCH  15  16
ENDBRANCH  12  15
ENDBRANCH   8  12
ENDBRANCH   7   9
BRANCH   7  19
ATOM     19  CB  VAL A   2      52.872  19.516  22.811  0.00  0.00    +0.027 C 
ATOM     20  CG2 VAL A   2      52.275  19.671  24.214  0.00  0.00    +0.002 C 
ATOM     21  CG1 VAL A   2      54.387  19.733  22.863  0.00  0.00    +0.002 C 
ENDBRANCH   7  19
ENDBRANCH   3   7
ENDBRANCH   1   5
BRANCH   1  22
ATOM     22  C   ALA A   3      53.990  19.667  17.750  0.00  0.00    +0.241 C 
ATOM     23  N   ASP A   4      55.078  19.396  18.463  0.00  0.00    -0.297 N 
ATOM     24  H   ASP A   4      55.317  19.993  19.280  0.00  0.00    +0.150 HD
ATOM     25  O   ALA A   3      53.638  18.988  16.780  0.00  0.00    -0.273 OA
BRANCH  23  26
ATOM     26  CA  ASP A   4      55.944  18.272  18.116  0.00  0.00    +0.160 C 
BRANCH  26  27
ATOM     27  C   ASP A   4      55.772  17.019  18.972  0.00  0.00    +0.241 C 
ATOM     28  N   VAL A   5      54.561  16.816  19.474  0.00  0.00    -0.298 N 
ATOM     29  H   VAL A   5      53.813  17.518  19.306  0.00  0.00    +0.150 HD
ATOM     30  O   ASP A   4      56.713  16.255  19.179  0.00  0.00    -0.273 OA
BRANCH  28  31
ATOM     31  CA  VAL A   5      54.263  15.625  20.257  0.00  0.00    +0.137 C 
BRANCH  31  32
ATOM     32  CB  VAL A   5      53.848  15.964  21.708  0.00  0.00    +0.026 C 
ATOM     33  CG2 VAL A   5      55.031  16.535  22.471  0.00  0.00    +0.002 C 
ATOM     34  CG1 VAL A   5      53.353  14.706  22.416  0.00  0.00    +0.002 C 
ENDBRANCH  31  32
BRANCH  31  35
ATOM     35  C   VAL A   5      53.107  14.906  19.567  0.00  0.00    +0.227 C 
ATOM     36  O   VAL A   5      51.950  15.334  19.660  0.00  0.00    -0.286 OA
ENDBRANCH  31  35
ENDBRANCH  28  31
ENDBRANCH  26  27
BRANCH  26  37
ATOM     37  CB  ASP A   4      57.408  18.725  18.118  0.00  0.00    +0.143 C 
BRANCH  37  38
ATOM     38  CG  ASP A   4      57.807  19.413  19.401  0.00  0.00    +0.367 C 
ATOM     39  OD2 ASP A   4      56.914  19.756  20.201  0.00  0.00    -0.246 OA
ATOM     40  OD1 ASP A   4      59.023  19.617  19.606  0.00  0.00    -0.246 OA
ENDBRANCH  37  38
ENDBRANCH  26  37
ENDBRANCH  23  26
ENDBRANCH   1  22
TORSDOF 16
REMARK  Name = ../refined-set-2016/2clh/2clh_pocket.pdb
REMARK  222 active torsions:
REMARK  status: ('A' for Active; 'I' for Inactive)
REMARK    1  A    between atoms: _1  and  _3
REMARK    2  A    between atoms: _3  and  _4
REMARK    3  A    between atoms: _3  and  _6
REMARK    4  A    between atoms: _10  and  _11
REMARK    5  A    between atoms: _16  and  _18
REMARK    6  A    between atoms: _18  and  _19
REMARK    7  A    between atoms: _18  and  _21
REMARK    8  A    between atoms: _21  and  _22
REMARK    9  A    between atoms: _28  and  _30
REMARK   10  A    between atoms: _30  and  _31
REMARK   11  A    between atoms: _30  and  _33
REMARK   12  A    between atoms: _36  and  _38
REMARK   13  A    between atoms: _38  and  _39
REMARK   14  A    between atoms: _38  and  _41
REMARK   15  A    between atoms: _41  and  _42
REMARK   16  A    between atoms: _45  and  _47
REMARK   17  A    between atoms: _47  and  _48
REMARK   18  A    between atoms: _47  and  _50
REMARK   19  A    between atoms: _50  and  _51
REMARK   20  A    between atoms: _54  and  _56
REMARK   21  A    between atoms: _56  and  _57
REMARK   22  A    between atoms: _56  and  _59
REMARK   23  A    between atoms: _59  and  _60
REMARK   24  A    between atoms: _60  and  _61
REMARK   25  A    between atoms: _64  and  _66
REMARK   26  A    between atoms: _66  and  _67
REMARK   27  A    between atoms: _66  and  _69
REMARK   28  A    between atoms: _69  and  _70
REMARK   29  A    between atoms: _73  and  _75
REMARK   30  A    between atoms: _75  and  _76
REMARK   31  A    between atoms: _79  and  _80
REMARK   32  A    between atoms: _85  and  _87
REMARK   33  A    between atoms: _87  and  _88
REMARK   34  A    between atoms: _87  and  _90
REMARK   35  A    between atoms: _90  and  _91
REMARK   36  A    between atoms: _94  and  _96
REMARK   37  A    between atoms: _96  and  _97
REMARK   38  A    between atoms: _100  and  _102
REMARK   39  A    between atoms: _102  and  _103
REMARK   40  A    between atoms: _102  and  _105
REMARK   41  A    between atoms: _105  and  _106
REMARK   42  A    between atoms: _109  and  _111
REMARK   43  A    between atoms: _111  and  _112
REMARK   44  A    between atoms: _114  and  _116
REMARK   45  A    between atoms: _116  and  _117
REMARK   46  A    between atoms: _116  and  _119
REMARK   47  A    between atoms: _119  and  _120
REMARK   48  A    between atoms: _123  and  _125
REMARK   49  A    between atoms: _125  and  _126
REMARK   50  A    between atoms: _125  and  _128
REMARK   51  A    between atoms: _128  and  _129
REMARK   52  A    between atoms: _132  and  _134
REMARK   53  A    between atoms: _134  and  _135
REMARK   54  A    between atoms: _134  and  _137
REMARK   55  A    between atoms: _137  and  _138
REMARK   56  A    between atoms: _143  and  _145
REMARK   57  A    between atoms: _145  and  _146
REMARK   58  A    between atoms: _148  and  _150
REMARK   59  A    between atoms: _150  and  _151
REMARK   60  A    between atoms: _150  and  _153
REMARK   61  A    between atoms: _153  and  _154
REMARK   62  A    between atoms: _157  and  _159
REMARK   63  A    between atoms: _159  and  _160
REMARK   64  A    between atoms: _159  and  _162
REMARK   65  A    between atoms: _162  and  _163
REMARK   66  A    between atoms: _166  and  _168
REMARK   67  A    between atoms: _168  and  _169
REMARK   68  A    between atoms: _168  and  _171
REMARK   69  A    between atoms: _171  and  _172
REMARK   70  A    between atoms: _172  and  _173
REMARK   71  A    between atoms: _175  and  _177
REMARK   72  A    between atoms: _177  and  _178
REMARK   73  A    between atoms: _177  and  _180
REMARK   74  A    between atoms: _180  and  _181
REMARK   75  A    between atoms: _186  and  _187
REMARK   76  A    between atoms: _189  and  _191
REMARK   77  A    between atoms: _191  and  _192
REMARK   78  A    between atoms: _191  and  _194
REMARK   79  A    between atoms: _194  and  _195
REMARK   80  A    between atoms: _198  and  _200
REMARK   81  A    between atoms: _200  and  _201
REMARK   82  A    between atoms: _200  and  _203
REMARK   83  A    between atoms: _206  and  _208
REMARK   84  A    between atoms: _208  and  _209
REMARK   85  A    between atoms: _212  and  _214
REMARK   86  A    between atoms: _214  and  _215
REMARK   87  A    between atoms: _214  and  _217
REMARK   88  A    between atoms: _217  and  _218
REMARK   89  A    between atoms: _221  and  _223
REMARK   90  A    between atoms: _223  and  _224
REMARK   91  A    between atoms: _223  and  _226
REMARK   92  A    between atoms: _229  and  _231
REMARK   93  A    between atoms: _231  and  _232
REMARK   94  A    between atoms: _231  and  _234
REMARK   95  A    between atoms: _234  and  _235
REMARK   96  A    between atoms: _238  and  _240
REMARK   97  A    between atoms: _240  and  _241
REMARK   98  A    between atoms: _240  and  _243
REMARK   99  A    between atoms: _243  and  _244
REMARK  100  A    between atoms: _250  and  _252
REMARK  101  A    between atoms: _252  and  _253
REMARK  102  A    between atoms: _252  and  _255
REMARK  103  A    between atoms: _255  and  _256
REMARK  104  A    between atoms: _259  and  _261
REMARK  105  A    between atoms: _261  and  _262
REMARK  106  A    between atoms: _261  and  _264
REMARK  107  A    between atoms: _266  and  _268
REMARK  108  A    between atoms: _268  and  _269
REMARK  109  A    between atoms: _268  and  _271
REMARK  110  A    between atoms: _271  and  _272
REMARK  111  A    between atoms: _277  and  _278
REMARK  112  A    between atoms: _280  and  _282
REMARK  113  A    between atoms: _282  and  _283
REMARK  114  A    between atoms: _282  and  _285
REMARK  115  A    between atoms: _285  and  _286
REMARK  116  A    between atoms: _291  and  _292
REMARK  117  A    between atoms: _294  and  _296
REMARK  118  A    between atoms: _296  and  _297
REMARK  119  A    between atoms: _296  and  _299
REMARK  120  A    between atoms: _299  and  _300
REMARK  121  A    between atoms: _303  and  _305
REMARK  122  A    between atoms: _305  and  _306
REMARK  123  A    between atoms: _305  and  _308
REMARK  124  A    between atoms: _308  and  _309
REMARK  125  A    between atoms: _312  and  _314
REMARK  126  A    between atoms: _314  and  _315
REMARK  127  A    between atoms: _314  and  _317
REMARK  128  A    between atoms: _317  and  _318
REMARK  129  A    between atoms: _320  and  _322
REMARK  130  A    between atoms: _322  and  _323
REMARK  131  A    between atoms: _322  and  _325
REMARK  132  A    between atoms: _325  and  _326
REMARK  133  A    between atoms: _326  and  _327
REMARK  134  A    between atoms: _327  and  _328
REMARK  135  A    between atoms: _337  and  _339
REMARK  136  A    between atoms: _339  and  _340
REMARK  137  A    between atoms: _342  and  _344
REMARK  138  A    between atoms: _344  and  _345
REMARK  139  A    between atoms: _344  and  _347
REMARK  140  A    between atoms: _350  and  _352
REMARK  141  A    between atoms: _352  and  _353
REMARK  142  A    between atoms: _352  and  _355
REMARK  143  A    between atoms: _355  and  _356
REMARK  144  A    between atoms: _359  and  _361
REMARK  145  A    between atoms: _361  and  _362
REMARK  146  A    between atoms: _364  and  _366
REMARK  147  A    between atoms: _366  and  _367
REMARK  148  A    between atoms: _366  and  _369
REMARK  149  A    between atoms: _369  and  _370
REMARK  150  A    between atoms: _373  and  _375
REMARK  151  A    between atoms: _375  and  _376
REMARK  152  A    between atoms: _375  and  _378
REMARK  153  A    between atoms: _378  and  _379
REMARK  154  A    between atoms: _379  and  _380
REMARK  155  A    between atoms: _385  and  _387
REMARK  156  A    between atoms: _387  and  _388
REMARK  157  A    between atoms: _390  and  _392
REMARK  158  A    between atoms: _392  and  _393
REMARK  159  A    between atoms: _392  and  _395
REMARK  160  A    between atoms: _395  and  _396
REMARK  161  A    between atoms: _402  and  _404
REMARK  162  A    between atoms: _404  and  _405
REMARK  163  A    between atoms: _407  and  _409
REMARK  164  A    between atoms: _409  and  _410
REMARK  165  A    between atoms: _409  and  _412
REMARK  166  A    between atoms: _412  and  _413
REMARK  167  A    between atoms: _416  and  _418
REMARK  168  A    between atoms: _418  and  _419
REMARK  169  A    between atoms: _418  and  _421
REMARK  170  A    between atoms: _421  and  _422
REMARK  171  A    between atoms: _424  and  _426
REMARK  172  A    between atoms: _426  and  _427
REMARK  173  A    between atoms: _426  and  _429
REMARK  174  A    between atoms: _429  and  _430
REMARK  175  A    between atoms: _430  and  _431
REMARK  176  A    between atoms: _436  and  _438
REMARK  177  A    between atoms: _438  and  _439
REMARK  178  A    between atoms: _438  and  _441
REMARK  179  A    between atoms: _441  and  _442
REMARK  180  A    between atoms: _445  and  _447
REMARK  181  A    between atoms: _447  and  _448
REMARK  182  A    between atoms: _447  and  _450
REMARK  183  A    between atoms: _450  and  _451
REMARK  184  A    between atoms: _453  and  _455
REMARK  185  A    between atoms: _455  and  _456
REMARK  186  A    between atoms: _458  and  _460
REMARK  187  A    between atoms: _460  and  _461
REMARK  188  A    between atoms: _460  and  _463
REMARK  189  A    between atoms: _463  and  _464
REMARK  190  A    between atoms: _466  and  _468
REMARK  191  A    between atoms: _468  and  _469
REMARK  192  A    between atoms: _472  and  _474
REMARK  193  A    between atoms: _474  and  _475
REMARK  194  A    between atoms: _474  and  _477
REMARK  195  A    between atoms: _477  and  _478
REMARK  196  A    between atoms: _481  and  _483
REMARK  197  A    between atoms: _483  and  _484
REMARK  198  A    between atoms: _483  and  _486
REMARK  199  A    between atoms: _489  and  _491
REMARK  200  A    between atoms: _491  and  _492
REMARK  201  A    between atoms: _491  and  _494
REMARK  202  A    between atoms: _494  and  _495
REMARK  203  A    between atoms: _495  and  _496
REMARK  204  A    between atoms: _496  and  _497
REMARK  205  A    between atoms: _497  and  _498
REMARK  206  A    between atoms: _502  and  _504
REMARK  207  A    between atoms: _504  and  _505
REMARK  208  A    between atoms: _504  and  _507
REMARK  209  A    between atoms: _511  and  _512
REMARK  210  A    between atoms: _517  and  _519
REMARK  211  A    between atoms: _519  and  _520
REMARK  212  A    between atoms: _519  and  _522
REMARK  213  A    between atoms: _522  and  _523
REMARK  214  A    between atoms: _523  and  _524
REMARK  215  A    between atoms: _529  and  _531
REMARK  216  A    between atoms: _531  and  _532
REMARK  217  A    between atoms: _531  and  _534
REMARK  218  A    between atoms: _534  and  _535
REMARK  219  A    between atoms: _538  and  _540
REMARK  220  A    between atoms: _540  and  _541
REMARK  221  A    between atoms: _540  and  _543
REMARK  222  A    between atoms: _543  and  _544
REMARK                            x       y       z     vdW  Elec       q    Type
REMARK                         _______ _______ _______ _____ _____    ______ ____
ROOT
ATOM      1  CA  PHE A   2      45.280  16.227  19.433  0.00  0.00    +0.153 C 
ENDROOT
BRANCH   1   4
ATOM      2  C   ILE A   1      45.460  18.024  21.062  0.00  0.00    +0.238 C 
ATOM      3  O   ILE A   1      46.687  18.055  20.978  0.00  0.00    -0.274 OA
ATOM      4  N   PHE A   2      44.703  17.184  20.365  0.00  0.00    -0.297 N 
ATOM      5  H   PHE A   2      43.671  17.211  20.489  0.00  0.00    +0.150 HD
BRANCH   2   6
ATOM      6  CA  ILE A   1      44.715  18.976  21.988  0.00  0.00    +0.145 C 
BRANCH   6   7
ATOM      7  N   ILE A   1      45.171  18.906  23.369  0.00  0.00    -0.238 NA
ATOM      8  H   ILE A   1      45.891  19.579  23.702  0.00  0.00    +0.142 HD
ENDBRANCH   6   7
BRANCH   6   9
ATOM      9  CB  ILE A   1      44.861  20.402  21.426  0.00  0.00    +0.025 C 
ATOM     10  CG2 ILE A   1      44.287  20.465  20.015  0.00  0.00    +0.002 C 
BRANCH   9  11
ATOM     11  CG1 ILE A   1      44.128  21.397  22.328  0.00  0.00    +0.002 C 
ATOM     12  CD1 ILE A   1      42.645  21.109  22.474  0.00  0.00    +0.000 C 
ENDBRANCH   9  11
ENDBRANCH   6   9
ENDBRANCH   2   6
ENDBRANCH   1   4
BRANCH   1  13
ATOM     13  C   PHE A   2      45.031  16.679  18.008  0.00  0.00    +0.241 C 
ATOM     14  O   PHE A   2      44.061  17.380  17.728  0.00  0.00    -0.273 OA
ATOM     15  N   ILE A   3      45.922  16.278  17.112  0.00  0.00    -0.297 N 
ATOM     16  H   ILE A   3      46.702  15.660  17.413  0.00  0.00    +0.150 HD
BRANCH  15  17
ATOM     17  CA  ILE A   3      45.834  16.681  15.722  0.00  0.00    +0.149 C 
BRANCH  17  18
ATOM     18  C   ILE A   3      45.355  15.577  14.804  0.00  0.00    +0.241 C 
ATOM     19  O   ILE A   3      45.870  14.461  14.829  0.00  0.00    -0.273 OA
ATOM     20  N   CYS A   4      44.357  15.899  13.992  0.00  0.00    -0.297 N 
ATOM     21  H   CYS A   4      43.948  16.854  14.038  0.00  0.00    +0.150 HD
BRANCH  20  22
ATOM     22  CA  CYS A   4      43.828  14.942  13.042  0.00  0.00    +0.149 C 
BRANCH  22  23
ATOM     23  CB  CYS A   4      42.299  14.908  13.099  0.00  0.00    +0.096 C 
ATOM     24  SG  CYS A   4      41.545  13.693  11.988  0.00  0.00    -0.080 S 
ENDBRANCH  22  23
BRANCH  22  25
ATOM     25  C   CYS A   4      44.292  15.391  11.663  0.00  0.00    +0.228 C 
ATOM     26  O   CYS A   4      43.771  16.357  11.106  0.00  0.00    -0.286 OA
ENDBRANCH  22  25
ENDBRANCH  20  22
ENDBRANCH  17  18
BRANCH  17  27
ATOM     27  CB  ILE A   3      47.206  17.182  15.214  0.00  0.00    +0.027 C 
ATOM     28  CG2 ILE A   3      47.133  17.520  13.741  0.00  0.00    +0.002 C 
BRANCH  27  29
ATOM     29  CG1 ILE A   3      47.635  18.418  16.004  0.00  0.00    +0.002 C 
ATOM     30  CD1 ILE A   3      48.000  18.145  17.440  0.00  0.00    +0.000 C 
ENDBRANCH  27  29
ENDBRANCH  17  27
ENDBRANCH  15  17
ENDBRANCH   1  13
BRANCH   1  31
ATOM     31  CB  PHE A   2      44.704  14.837  19.686  0.00  0.00    +0.055 C 
BRANCH  31  32
ATOM     32  CG  PHE A   2      45.314  14.150  20.872  0.00  0.00    -0.020 A 
ATOM     33  CD2 PHE A   2      44.927  14.490  22.161  0.00  0.00    -0.004 A 
ATOM     34  CE2 PHE A   2      45.541  13.909  23.267  0.00  0.00    -0.000 A 
ATOM     35  CZ  PHE A   2      46.551  12.974  23.086  0.00  0.00    -0.000 A 
ATOM     36  CE1 PHE A   2      46.944  12.621  21.800  0.00  0.00    -0.000 A 
ATOM     37  CD1 PHE A   2      46.325  13.209  20.702  0.00  0.00    -0.004 A 
ENDBRANCH  31  32
ENDBRANCH   1  31
TORSDOF 15
REMARK  Name = ../refined-set-2016/2clh/2clh_pocket.pdb
REMARK  222 active torsions:
REMARK  status: ('A' for Active; 'I' for Inactive)
REMARK    1  A    between atoms: _1  and  _3
REMARK    2  A    between atoms: _3  and  _4
REMARK    3  A    between atoms: _3  and  _6
REMARK    4  A    between atoms: _10  and  _11
REMARK    5  A    between atoms: _16  and  _18
REMARK    6  A    between atoms: _18  and  _19
REMARK    7  A    between atoms: _18  and  _21
REMARK    8  A    between atoms: _21  and  _22
REMARK    9  A    between atoms: _28  and  _30
REMARK   10  A    between atoms: _30  and  _31
REMARK   11  A    between atoms: _30  and  _33
REMARK   12  A    between atoms: _36  and  _38
REMARK   13  A    between atoms: _38  and  _39
REMARK   14  A    between atoms: _38  and  _41
REMARK   15  A    between atoms: _41  and  _42
REMARK   16  A    between atoms: _45  and  _47
REMARK   17  A    between atoms: _47  and  _48
REMARK   18  A    between atoms: _47  and  _50
REMARK   19  A    between atoms: _50  and  _51
REMARK   20  A    between atoms: _54  and  _56
REMARK   21  A    between atoms: _56  and  _57
REMARK   22  A    between atoms: _56  and  _59
REMARK   23  A    between atoms: _59  and  _60
REMARK   24  A    between atoms: _60  and  _61
REMARK   25  A    between atoms: _64  and  _66
REMARK   26  A    between atoms: _66  and  _67
REMARK   27  A    between atoms: _66  and  _69
REMARK   28  A    between atoms: _69  and  _70
REMARK   29  A    between atoms: _73  and  _75
REMARK   30  A    between atoms: _75  and  _76
REMARK   31  A    between atoms: _79  and  _80
REMARK   32  A    between atoms: _85  and  _87
REMARK   33  A    between atoms: _87  and  _88
REMARK   34  A    between atoms: _87  and  _90
REMARK   35  A    between atoms: _90  and  _91
REMARK   36  A    between atoms: _94  and  _96
REMARK   37  A    between atoms: _96  and  _97
REMARK   38  A    between atoms: _100  and  _102
REMARK   39  A    between atoms: _102  and  _103
REMARK   40  A    between atoms: _102  and  _105
REMARK   41  A    between atoms: _105  and  _106
REMARK   42  A    between atoms: _109  and  _111
REMARK   43  A    between atoms: _111  and  _112
REMARK   44  A    between atoms: _114  and  _116
REMARK   45  A    between atoms: _116  and  _117
REMARK   46  A    between atoms: _116  and  _119
REMARK   47  A    between atoms: _119  and  _120
REMARK   48  A    between atoms: _123  and  _125
REMARK   49  A    between atoms: _125  and  _126
REMARK   50  A    between atoms: _125  and  _128
REMARK   51  A    between atoms: _128  and  _129
REMARK   52  A    between atoms: _132  and  _134
REMARK   53  A    between atoms: _134  and  _135
REMARK   54  A    between atoms: _134  and  _137
REMARK   55  A    between atoms: _137  and  _138
REMARK   56  A    between atoms: _143  and  _145
REMARK   57  A    between atoms: _145  and  _146
REMARK   58  A    between atoms: _148  and  _150
REMARK   59  A    between atoms: _150  and  _151
REMARK   60  A    between atoms: _150  and  _153
REMARK   61  A    between atoms: _153  and  _154
REMARK   62  A    between atoms: _157  and  _159
REMARK   63  A    between atoms: _159  and  _160
REMARK   64  A    between atoms: _159  and  _162
REMARK   65  A    between atoms: _162  and  _163
REMARK   66  A    between atoms: _166  and  _168
REMARK   67  A    between atoms: _168  and  _169
REMARK   68  A    between atoms: _168  and  _171
REMARK   69  A    between atoms: _171  and  _172
REMARK   70  A    between atoms: _172  and  _173
REMARK   71  A    between atoms: _175  and  _177
REMARK   72  A    between atoms: _177  and  _178
REMARK   73  A    between atoms: _177  and  _180
REMARK   74  A    between atoms: _180  and  _181
REMARK   75  A    between atoms: _186  and  _187
REMARK   76  A    between atoms: _189  and  _191
REMARK   77  A    between atoms: _191  and  _192
REMARK   78  A    between atoms: _191  and  _194
REMARK   79  A    between atoms: _194  and  _195
REMARK   80  A    between atoms: _198  and  _200
REMARK   81  A    between atoms: _200  and  _201
REMARK   82  A    between atoms: _200  and  _203
REMARK   83  A    between atoms: _206  and  _208
REMARK   84  A    between atoms: _208  and  _209
REMARK   85  A    between atoms: _212  and  _214
REMARK   86  A    between atoms: _214  and  _215
REMARK   87  A    between atoms: _214  and  _217
REMARK   88  A    between atoms: _217  and  _218
REMARK   89  A    between atoms: _221  and  _223
REMARK   90  A    between atoms: _223  and  _224
REMARK   91  A    between atoms: _223  and  _226
REMARK   92  A    between atoms: _229  and  _231
REMARK   93  A    between atoms: _231  and  _232
REMARK   94  A    between atoms: _231  and  _234
REMARK   95  A    between atoms: _234  and  _235
REMARK   96  A    between atoms: _238  and  _240
REMARK   97  A    between atoms: _240  and  _241
REMARK   98  A    between atoms: _240  and  _243
REMARK   99  A    between atoms: _243  and  _244
REMARK  100  A    between atoms: _250  and  _252
REMARK  101  A    between atoms: _252  and  _253
REMARK  102  A    between atoms: _252  and  _255
REMARK  103  A    between atoms: _255  and  _256
REMARK  104  A    between atoms: _259  and  _261
REMARK  105  A    between atoms: _261  and  _262
REMARK  106  A    between atoms: _261  and  _264
REMARK  107  A    between atoms: _266  and  _268
REMARK  108  A    between atoms: _268  and  _269
REMARK  109  A    between atoms: _268  and  _271
REMARK  110  A    between atoms: _271  and  _272
REMARK  111  A    between atoms: _277  and  _278
REMARK  112  A    between atoms: _280  and  _282
REMARK  113  A    between atoms: _282  and  _283
REMARK  114  A    between atoms: _282  and  _285
REMARK  115  A    between atoms: _285  and  _286
REMARK  116  A    between atoms: _291  and  _292
REMARK  117  A    between atoms: _294  and  _296
REMARK  118  A    between atoms: _296  and  _297
REMARK  119  A    between atoms: _296  and  _299
REMARK  120  A    between atoms: _299  and  _300
REMARK  121  A    between atoms: _303  and  _305
REMARK  122  A    between atoms: _305  and  _306
REMARK  123  A    between atoms: _305  and  _308
REMARK  124  A    between atoms: _308  and  _309
REMARK  125  A    between atoms: _312  and  _314
REMARK  126  A    between atoms: _314  and  _315
REMARK  127  A    between atoms: _314  and  _317
REMARK  128  A    between atoms: _317  and  _318
REMARK  129  A    between atoms: _320  and  _322
REMARK  130  A    between atoms: _322  and  _323
REMARK  131  A    between atoms: _322  and  _325
REMARK  132  A    between atoms: _325  and  _326
REMARK  133  A    between atoms: _326  and  _327
REMARK  134  A    between atoms: _327  and  _328
REMARK  135  A    between atoms: _337  and  _339
REMARK  136  A    between atoms: _339  and  _340
REMARK  137  A    between atoms: _342  and  _344
REMARK  138  A    between atoms: _344  and  _345
REMARK  139  A    between atoms: _344  and  _347
REMARK  140  A    between atoms: _350  and  _352
REMARK  141  A    between atoms: _352  and  _353
REMARK  142  A    between atoms: _352  and  _355
REMARK  143  A    between atoms: _355  and  _356
REMARK  144  A    between atoms: _359  and  _361
REMARK  145  A    between atoms: _361  and  _362
REMARK  146  A    between atoms: _364  and  _366
REMARK  147  A    between atoms: _366  and  _367
REMARK  148  A    between atoms: _366  and  _369
REMARK  149  A    between atoms: _369  and  _370
REMARK  150  A    between atoms: _373  and  _375
REMARK  151  A    between atoms: _375  and  _376
REMARK  152  A    between atoms: _375  and  _378
REMARK  153  A    between atoms: _378  and  _379
REMARK  154  A    between atoms: _379  and  _380
REMARK  155  A    between atoms: _385  and  _387
REMARK  156  A    between atoms: _387  and  _388
REMARK  157  A    between atoms: _390  and  _392
REMARK  158  A    between atoms: _392  and  _393
REMARK  159  A    between atoms: _392  and  _395
REMARK  160  A    between atoms: _395  and  _396
REMARK  161  A    between atoms: _402  and  _404
REMARK  162  A    between atoms: _404  and  _405
REMARK  163  A    between atoms: _407  and  _409
REMARK  164  A    between atoms: _409  and  _410
REMARK  165  A    between atoms: _409  and  _412
REMARK  166  A    between atoms: _412  and  _413
REMARK  167  A    between atoms: _416  and  _418
REMARK  168  A    between atoms: _418  and  _419
REMARK  169  A    between atoms: _418  and  _421
REMARK  170  A    between atoms: _421  and  _422
REMARK  171  A    between atoms: _424  and  _426
REMARK  172  A    between atoms: _426  and  _427
REMARK  173  A    between atoms: _426  and  _429
REMARK  174  A    between atoms: _429  and  _430
REMARK  175  A    between atoms: _430  and  _431
REMARK  176  A    between atoms: _436  and  _438
REMARK  177  A    between atoms: _438  and  _439
REMARK  178  A    between atoms: _438  and  _441
REMARK  179  A    between atoms: _441  and  _442
REMARK  180  A    between atoms: _445  and  _447
REMARK  181  A    between atoms: _447  and  _448
REMARK  182  A    between atoms: _447  and  _450
REMARK  183  A    between atoms: _450  and  _451
REMARK  184  A    between atoms: _453  and  _455
REMARK  185  A    between atoms: _455  and  _456
REMARK  186  A    between atoms: _458  and  _460
REMARK  187  A    between atoms: _460  and  _461
REMARK  188  A    between atoms: _460  and  _463
REMARK  189  A    between atoms: _463  and  _464
REMARK  190  A    between atoms: _466  and  _468
REMARK  191  A    between atoms: _468  and  _469
REMARK  192  A    between atoms: _472  and  _474
REMARK  193  A    between atoms: _474  and  _475
REMARK  194  A    between atoms: _474  and  _477
REMARK  195  A    between atoms: _477  and  _478
REMARK  196  A    between atoms: _481  and  _483
REMARK  197  A    between atoms: _483  and  _484
REMARK  198  A    between atoms: _483  and  _486
REMARK  199  A    between atoms: _489  and  _491
REMARK  200  A    between atoms: _491  and  _492
REMARK  201  A    between atoms: _491  and  _494
REMARK  202  A    between atoms: _494  and  _495
REMARK  203  A    between atoms: _495  and  _496
REMARK  204  A    between atoms: _496  and  _497
REMARK  205  A    between atoms: _497  and  _498
REMARK  206  A    between atoms: _502  and  _504
REMARK  207  A    between atoms: _504  and  _505
REMARK  208  A    between atoms: _504  and  _507
REMARK  209  A    between atoms: _511  and  _512
REMARK  210  A    between atoms: _517  and  _519
REMARK  211  A    between atoms: _519  and  _520
REMARK  212  A    between atoms: _519  and  _522
REMARK  213  A    between atoms: _522  and  _523
REMARK  214  A    between atoms: _523  and  _524
REMARK  215  A    between atoms: _529  and  _531
REMARK  216  A    between atoms: _531  and  _532
REMARK  217  A    between atoms: _531  and  _534
REMARK  218  A    between atoms: _534  and  _535
REMARK  219  A    between atoms: _538  and  _540
REMARK  220  A    between atoms: _540  and  _541
REMARK  221  A    between atoms: _540  and  _543
REMARK  222  A    between atoms: _543  and  _544
REMARK                            x       y       z     vdW  Elec       q    Type
REMARK                         _______ _______ _______ _____ _____    ______ ____
ROOT
ATOM      1  CG  TYR A   1      39.851  22.528  19.882  0.00  0.00    -0.020 A 
ATOM      2  CD2 TYR A   1      40.412  23.353  20.857  0.00  0.00    -0.001 A 
ATOM      3  CE2 TYR A   1      41.673  23.923  20.680  0.00  0.00    +0.036 A 
ATOM      4  CZ  TYR A   1      42.383  23.669  19.517  0.00  0.00    +0.134 A 
ATOM      5  CE1 TYR A   1      41.844  22.852  18.533  0.00  0.00    +0.036 A 
ATOM      6  CD1 TYR A   1      40.587  22.288  18.721  0.00  0.00    -0.001 A 
ENDROOT
BRANCH   4   7
ATOM      7  OH  TYR A   1      43.630  24.229  19.332  0.00  0.00    -0.506 OA
ATOM      8  HH  TYR A   1      43.554  25.216  19.355  0.00  0.00    +0.292 HD
ENDBRANCH   4   7
BRANCH   1   9
ATOM      9  CB  TYR A   1      38.484  21.906  20.080  0.00  0.00    +0.051 C 
BRANCH   9  10
ATOM     10  CA  TYR A   1      38.486  20.470  20.631  0.00  0.00    +0.137 C 
BRANCH  10  11
ATOM     11  N   TYR A   1      38.794  20.462  22.050  0.00  0.00    -0.239 NA
ATOM     12  H   TYR A   1      39.761  20.239  22.360  0.00  0.00    +0.142 HD
ENDBRANCH  10  11
BRANCH  10  13
ATOM     13  C   TYR A   1      39.503  19.611  19.892  0.00  0.00    +0.224 C 
ATOM     14  O   TYR A   1      40.615  19.400  20.370  0.00  0.00    -0.287 OA
ENDBRANCH  10  13
ENDBRANCH   9  10
ENDBRANCH   1   9
TORSDOF 5
REMARK  Name = ../refined-set-2016/2clh/2clh_pocket.pdb
REMARK  222 active torsions:
REMARK  status: ('A' for Active; 'I' for Inactive)
REMARK    1  A    between atoms: _1  and  _3
REMARK    2  A    between atoms: _3  and  _4
REMARK    3  A    between atoms: _3  and  _6
REMARK    4  A    between atoms: _10  and  _11
REMARK    5  A    between atoms: _16  and  _18
REMARK    6  A    between atoms: _18  and  _19
REMARK    7  A    between atoms: _18  and  _21
REMARK    8  A    between atoms: _21  and  _22
REMARK    9  A    between atoms: _28  and  _30
REMARK   10  A    between atoms: _30  and  _31
REMARK   11  A    between atoms: _30  and  _33
REMARK   12  A    between atoms: _36  and  _38
REMARK   13  A    between atoms: _38  and  _39
REMARK   14  A    between atoms: _38  and  _41
REMARK   15  A    between atoms: _41  and  _42
REMARK   16  A    between atoms: _45  and  _47
REMARK   17  A    between atoms: _47  and  _48
REMARK   18  A    between atoms: _47  and  _50
REMARK   19  A    between atoms: _50  and  _51
REMARK   20  A    between atoms: _54  and  _56
REMARK   21  A    between atoms: _56  and  _57
REMARK   22  A    between atoms: _56  and  _59
REMARK   23  A    between atoms: _59  and  _60
REMARK   24  A    between atoms: _60  and  _61
REMARK   25  A    between atoms: _64  and  _66
REMARK   26  A    between atoms: _66  and  _67
REMARK   27  A    between atoms: _66  and  _69
REMARK   28  A    between atoms: _69  and  _70
REMARK   29  A    between atoms: _73  and  _75
REMARK   30  A    between atoms: _75  and  _76
REMARK   31  A    between atoms: _79  and  _80
REMARK   32  A    between atoms: _85  and  _87
REMARK   33  A    between atoms: _87  and  _88
REMARK   34  A    between atoms: _87  and  _90
REMARK   35  A    between atoms: _90  and  _91
REMARK   36  A    between atoms: _94  and  _96
REMARK   37  A    between atoms: _96  and  _97
REMARK   38  A    between atoms: _100  and  _102
REMARK   39  A    between atoms: _102  and  _103
REMARK   40  A    between atoms: _102  and  _105
REMARK   41  A    between atoms: _105  and  _106
REMARK   42  A    between atoms: _109  and  _111
REMARK   43  A    between atoms: _111  and  _112
REMARK   44  A    between atoms: _114  and  _116
REMARK   45  A    between atoms: _116  and  _117
REMARK   46  A    between atoms: _116  and  _119
REMARK   47  A    between atoms: _119  and  _120
REMARK   48  A    between atoms: _123  and  _125
REMARK   49  A    between atoms: _125  and  _126
REMARK   50  A    between atoms: _125  and  _128
REMARK   51  A    between atoms: _128  and  _129
REMARK   52  A    between atoms: _132  and  _134
REMARK   53  A    between atoms: _134  and  _135
REMARK   54  A    between atoms: _134  and  _137
REMARK   55  A    between atoms: _137  and  _138
REMARK   56  A    between atoms: _143  and  _145
REMARK   57  A    between atoms: _145  and  _146
REMARK   58  A    between atoms: _148  and  _150
REMARK   59  A    between atoms: _150  and  _151
REMARK   60  A    between atoms: _150  and  _153
REMARK   61  A    between atoms: _153  and  _154
REMARK   62  A    between atoms: _157  and  _159
REMARK   63  A    between atoms: _159  and  _160
REMARK   64  A    between atoms: _159  and  _162
REMARK   65  A    between atoms: _162  and  _163
REMARK   66  A    between atoms: _166  and  _168
REMARK   67  A    between atoms: _168  and  _169
REMARK   68  A    between atoms: _168  and  _171
REMARK   69  A    between atoms: _171  and  _172
REMARK   70  A    between atoms: _172  and  _173
REMARK   71  A    between atoms: _175  and  _177
REMARK   72  A    between atoms: _177  and  _178
REMARK   73  A    between atoms: _177  and  _180
REMARK   74  A    between atoms: _180  and  _181
REMARK   75  A    between atoms: _186  and  _187
REMARK   76  A    between atoms: _189  and  _191
REMARK   77  A    between atoms: _191  and  _192
REMARK   78  A    between atoms: _191  and  _194
REMARK   79  A    between atoms: _194  and  _195
REMARK   80  A    between atoms: _198  and  _200
REMARK   81  A    between atoms: _200  and  _201
REMARK   82  A    between atoms: _200  and  _203
REMARK   83  A    between atoms: _206  and  _208
REMARK   84  A    between atoms: _208  and  _209
REMARK   85  A    between atoms: _212  and  _214
REMARK   86  A    between atoms: _214  and  _215
REMARK   87  A    between atoms: _214  and  _217
REMARK   88  A    between atoms: _217  and  _218
REMARK   89  A    between atoms: _221  and  _223
REMARK   90  A    between atoms: _223  and  _224
REMARK   91  A    between atoms: _223  and  _226
REMARK   92  A    between atoms: _229  and  _231
REMARK   93  A    between atoms: _231  and  _232
REMARK   94  A    between atoms: _231  and  _234
REMARK   95  A    between atoms: _234  and  _235
REMARK   96  A    between atoms: _238  and  _240
REMARK   97  A    between atoms: _240  and  _241
REMARK   98  A    between atoms: _240  and  _243
REMARK   99  A    between atoms: _243  and  _244
REMARK  100  A    between atoms: _250  and  _252
REMARK  101  A    between atoms: _252  and  _253
REMARK  102  A    between atoms: _252  and  _255
REMARK  103  A    between atoms: _255  and  _256
REMARK  104  A    between atoms: _259  and  _261
REMARK  105  A    between atoms: _261  and  _262
REMARK  106  A    between atoms: _261  and  _264
REMARK  107  A    between atoms: _266  and  _268
REMARK  108  A    between atoms: _268  and  _269
REMARK  109  A    between atoms: _268  and  _271
REMARK  110  A    between atoms: _271  and  _272
REMARK  111  A    between atoms: _277  and  _278
REMARK  112  A    between atoms: _280  and  _282
REMARK  113  A    between atoms: _282  and  _283
REMARK  114  A    between atoms: _282  and  _285
REMARK  115  A    between atoms: _285  and  _286
REMARK  116  A    between atoms: _291  and  _292
REMARK  117  A    between atoms: _294  and  _296
REMARK  118  A    between atoms: _296  and  _297
REMARK  119  A    between atoms: _296  and  _299
REMARK  120  A    between atoms: _299  and  _300
REMARK  121  A    between atoms: _303  and  _305
REMARK  122  A    between atoms: _305  and  _306
REMARK  123  A    between atoms: _305  and  _308
REMARK  124  A    between atoms: _308  and  _309
REMARK  125  A    between atoms: _312  and  _314
REMARK  126  A    between atoms: _314  and  _315
REMARK  127  A    between atoms: _314  and  _317
REMARK  128  A    between atoms: _317  and  _318
REMARK  129  A    between atoms: _320  and  _322
REMARK  130  A    between atoms: _322  and  _323
REMARK  131  A    between atoms: _322  and  _325
REMARK  132  A    between atoms: _325  and  _326
REMARK  133  A    between atoms: _326  and  _327
REMARK  134  A    between atoms: _327  and  _328
REMARK  135  A    between atoms: _337  and  _339
REMARK  136  A    between atoms: _339  and  _340
REMARK  137  A    between atoms: _342  and  _344
REMARK  138  A    between atoms: _344  and  _345
REMARK  139  A    between atoms: _344  and  _347
REMARK  140  A    between atoms: _350  and  _352
REMARK  141  A    between atoms: _352  and  _353
REMARK  142  A    between atoms: _352  and  _355
REMARK  143  A    between atoms: _355  and  _356
REMARK  144  A    between atoms: _359  and  _361
REMARK  145  A    between atoms: _361  and  _362
REMARK  146  A    between atoms: _364  and  _366
REMARK  147  A    between atoms: _366  and  _367
REMARK  148  A    between atoms: _366  and  _369
REMARK  149  A    between atoms: _369  and  _370
REMARK  150  A    between atoms: _373  and  _375
REMARK  151  A    between atoms: _375  and  _376
REMARK  152  A    between atoms: _375  and  _378
REMARK  153  A    between atoms: _378  and  _379
REMARK  154  A    between atoms: _379  and  _380
REMARK  155  A    between atoms: _385  and  _387
REMARK  156  A    between atoms: _387  and  _388
REMARK  157  A    between atoms: _390  and  _392
REMARK  158  A    between atoms: _392  and  _393
REMARK  159  A    between atoms: _392  and  _395
REMARK  160  A    between atoms: _395  and  _396
REMARK  161  A    between atoms: _402  and  _404
REMARK  162  A    between atoms: _404  and  _405
REMARK  163  A    between atoms: _407  and  _409
REMARK  164  A    between atoms: _409  and  _410
REMARK  165  A    between atoms: _409  and  _412
REMARK  166  A    between atoms: _412  and  _413
REMARK  167  A    between atoms: _416  and  _418
REMARK  168  A    between atoms: _418  and  _419
REMARK  169  A    between atoms: _418  and  _421
REMARK  170  A    between atoms: _421  and  _422
REMARK  171  A    between atoms: _424  and  _426
REMARK  172  A    between atoms: _426  and  _427
REMARK  173  A    between atoms: _426  and  _429
REMARK  174  A    between atoms: _429  and  _430
REMARK  175  A    between atoms: _430  and  _431
REMARK  176  A    between atoms: _436  and  _438
REMARK  177  A    between atoms: _438  and  _439
REMARK  178  A    between atoms: _438  and  _441
REMARK  179  A    between atoms: _441  and  _442
REMARK  180  A    between atoms: _445  and  _447
REMARK  181  A    between atoms: _447  and  _448
REMARK  182  A    between atoms: _447  and  _450
REMARK  183  A    between atoms: _450  and  _451
REMARK  184  A    between atoms: _453  and  _455
REMARK  185  A    between atoms: _455  and  _456
REMARK  186  A    between atoms: _458  and  _460
REMARK  187  A    between atoms: _460  and  _461
REMARK  188  A    between atoms: _460  and  _463
REMARK  189  A    between atoms: _463  and  _464
REMARK  190  A    between atoms: _466  and  _468
REMARK  191  A    between atoms: _468  and  _469
REMARK  192  A    between atoms: _472  and  _474
REMARK  193  A    between atoms: _474  and  _475
REMARK  194  A    between atoms: _474  and  _477
REMARK  195  A    between atoms: _477  and  _478
REMARK  196  A    between atoms: _481  and  _483
REMARK  197  A    between atoms: _483  and  _484
REMARK  198  A    between atoms: _483  and  _486
REMARK  199  A    between atoms: _489  and  _491
REMARK  200  A    between atoms: _491  and  _492
REMARK  201  A    between atoms: _491  and  _494
REMARK  202  A    between atoms: _494  and  _495
REMARK  203  A    between atoms: _495  and  _496
REMARK  204  A    between atoms: _496  and  _497
REMARK  205  A    between atoms: _497  and  _498
REMARK  206  A    between atoms: _502  and  _504
REMARK  207  A    between atoms: _504  and  _505
REMARK  208  A    between atoms: _504  and  _507
REMARK  209  A    between atoms: _511  and  _512
REMARK  210  A    between atoms: _517  and  _519
REMARK  211  A    between atoms: _519  and  _520
REMARK  212  A    between atoms: _519  and  _522
REMARK  213  A    between atoms: _522  and  _523
REMARK  214  A    between atoms: _523  and  _524
REMARK  215  A    between atoms: _529  and  _531
REMARK  216  A    between atoms: _531  and  _532
REMARK  217  A    between atoms: _531  and  _534
REMARK  218  A    between atoms: _534  and  _535
REMARK  219  A    between atoms: _538  and  _540
REMARK  220  A    between atoms: _540  and  _541
REMARK  221  A    between atoms: _540  and  _543
REMARK  222  A    between atoms: _543  and  _544
REMARK                            x       y       z     vdW  Elec       q    Type
REMARK                         _______ _______ _______ _____ _____    ______ ____
ROOT
ATOM      1  CA  LEU A   3      44.536  20.031   9.854  0.00  0.00    +0.149 C 
ENDROOT
BRANCH   1   2
ATOM      2  C   LEU A   3      43.940  20.152   8.463  0.00  0.00    +0.241 C 
ATOM      3  O   LEU A   3      43.381  19.193   7.932  0.00  0.00    -0.273 OA
ATOM      4  N   SER A   4      44.076  21.331   7.870  0.00  0.00    -0.295 N 
ATOM      5  H   SER A   4      44.567  22.098   8.372  0.00  0.00    +0.150 HD
BRANCH   4   6
ATOM      6  CA  SER A   4      43.554  21.576   6.535  0.00  0.00    +0.178 C 
BRANCH   6   7
ATOM      7  C   SER A   4      44.434  20.910   5.483  0.00  0.00    +0.243 C 
ATOM      8  N   ARG A   5      45.710  20.740   5.813  0.00  0.00    -0.298 N 
ATOM      9  H   ARG A   5      46.032  21.027   6.759  0.00  0.00    +0.150 HD
ATOM     10  O   SER A   4      43.963  20.550   4.401  0.00  0.00    -0.273 OA
BRANCH   8  11
ATOM     11  CA  ARG A   5      46.671  20.160   4.880  0.00  0.00    +0.137 C 
BRANCH  11  12
ATOM     12  C   ARG A   5      47.954  19.759   5.599  0.00  0.00    +0.227 C 
ATOM     13  O   ARG A   5      48.094  19.949   6.808  0.00  0.00    -0.286 OA
ENDBRANCH  11  12
BRANCH  11  14
ATOM     14  CB  ARG A   5      47.030  21.204   3.829  0.00  0.00    +0.031 C 
BRANCH  14  15
ATOM     15  CG  ARG A   5      47.552  22.488   4.475  0.00  0.00    +0.045 C 
BRANCH  15  16
ATOM     16  CD  ARG A   5      48.081  23.494   3.473  0.00  0.00    +0.174 C 
BRANCH  16  17
ATOM     17  NE  ARG A   5      48.446  24.758   4.115  0.00  0.00    -0.265 N 
ATOM     18  CZ  ARG A   5      49.416  24.899   5.017  0.00  0.00    +0.342 C 
ATOM     19  NH2 ARG A   5      49.664  26.094   5.537  0.00  0.00    -0.292 N 
ATOM     20 HH21 ARG A   5      50.421  26.208   6.241  0.00  0.00    +0.255 HD
ATOM     21 HH22 ARG A   5      49.102  26.917   5.240  0.00  0.00    +0.255 HD
ATOM     22  NH1 ARG A   5      50.140  23.853   5.401  0.00  0.00    -0.292 N 
ATOM     23 HH11 ARG A   5      50.895  23.974   6.106  0.00  0.00    +0.255 HD
ATOM     24 HH12 ARG A   5      49.952  22.914   4.997  0.00  0.00    +0.255 HD
ATOM     25  HE  ARG A   5      47.909  25.608   3.847  0.00  0.00    +0.259 HD
ENDBRANCH  16  17
ENDBRANCH  15  16
ENDBRANCH  14  15
ENDBRANCH  11  14
ENDBRANCH   8  11
ENDBRANCH   6   7
BRANCH   6  26
ATOM     26  CB  SER A   4      43.505  23.079   6.256  0.00  0.00    +0.166 C 
BRANCH  26  27
ATOM     27  OG  SER A   4      42.762  23.766   7.248  0.00  0.00    -0.380 OA
ATOM     28  H   SER A   4      43.184  23.624   8.132  0.00  0.00    +0.211 HD
ENDBRANCH  26  27
ENDBRANCH   6  26
ENDBRANCH   4   6
ENDBRANCH   1   2
BRANCH   1  31
ATOM     29  C   LEU A   2      42.479  20.061  11.157  0.00  0.00    +0.241 C 
ATOM     30  O   LEU A   2      42.206  21.199  10.783  0.00  0.00    -0.273 OA
ATOM     31  N   LEU A   3      43.581  19.417  10.775  0.00  0.00    -0.297 N 
ATOM     32  H   LEU A   3      43.765  18.460  11.139  0.00  0.00    +0.150 HD
BRANCH  29  33
ATOM     33  CA  LEU A   2      41.548  19.322  12.112  0.00  0.00    +0.149 C 
BRANCH  33  36
ATOM     34  C   TYR A   1      42.462  19.331  14.353  0.00  0.00    +0.239 C 
ATOM     35  O   TYR A   1      43.108  18.306  14.132  0.00  0.00    -0.274 OA
ATOM     36  N   LEU A   2      41.673  19.891  13.444  0.00  0.00    -0.297 N 
ATOM     37  H   LEU A   2      41.137  20.748  13.688  0.00  0.00    +0.150 HD
BRANCH  34  38
ATOM     38  CA  TYR A   1      42.515  20.017  15.711  0.00  0.00    +0.149 C 
BRANCH  38  39
ATOM     39  N   TYR A   1      41.897  19.169  16.717  0.00  0.00    -0.238 NA
ATOM     40  H   TYR A   1      42.485  18.556  17.317  0.00  0.00    +0.142 HD
ENDBRANCH  38  39
BRANCH  38  41
ATOM     41  CB  TYR A   1      43.964  20.337  16.082  0.00  0.00    +0.053 C 
BRANCH  41  42
ATOM     42  CG  TYR A   1      44.486  21.578  15.386  0.00  0.00    -0.020 A 
ATOM     43  CD2 TYR A   1      44.696  22.757  16.092  0.00  0.00    -0.001 A 
ATOM     44  CE2 TYR A   1      45.127  23.912  15.447  0.00  0.00    +0.036 A 
ATOM     45  CZ  TYR A   1      45.355  23.891  14.081  0.00  0.00    +0.134 A 
ATOM     46  CE1 TYR A   1      45.156  22.731  13.359  0.00  0.00    +0.036 A 
ATOM     47  CD1 TYR A   1      44.725  21.582  14.012  0.00  0.00    -0.001 A 
BRANCH  45  48
ATOM     48  OH  TYR A   1      45.781  25.034  13.446  0.00  0.00    -0.506 OA
ATOM     49  HH  TYR A   1      46.645  25.322  13.833  0.00  0.00    +0.292 HD
ENDBRANCH  45  48
ENDBRANCH  41  42
ENDBRANCH  38  41
ENDBRANCH  34  38
ENDBRANCH  33  36
BRANCH  33  50
ATOM     50  CB  LEU A   2      40.101  19.437  11.624  0.00  0.00    +0.029 C 
BRANCH  50  51
ATOM     51  CG  LEU A   2      39.774  18.775  10.283  0.00  0.00    +0.002 C 
ATOM     52  CD2 LEU A   2      39.934  17.263  10.396  0.00  0.00    +0.000 C 
ATOM     53  CD1 LEU A   2      38.350  19.123   9.883  0.00  0.00    +0.000 C 
ENDBRANCH  50  51
ENDBRANCH  33  50
ENDBRANCH  29  33
ENDBRANCH   1  31
BRANCH   1  54
ATOM     54  CB  LEU A   3      45.820  19.202   9.760  0.00  0.00    +0.029 C 
BRANCH  54  55
ATOM     55  CG  LEU A   3      46.850  19.300  10.883  0.00  0.00    +0.002 C 
ATOM     56  CD2 LEU A   3      47.390  20.723  10.972  0.00  0.00    +0.000 C 
ATOM     57  CD1 LEU A   3      47.979  18.318  10.606  0.00  0.00    +0.000 C 
ENDBRANCH  54  55
ENDBRANCH   1  54
TORSDOF 23
REMARK  Name = ../refined-set-2016/2clh/2clh_pocket.pdb
REMARK  222 active torsions:
REMARK  status: ('A' for Active; 'I' for Inactive)
REMARK    1  A    between atoms: _1  and  _3
REMARK    2  A    between atoms: _3  and  _4
REMARK    3  A    between atoms: _3  and  _6
REMARK    4  A    between atoms: _10  and  _11
REMARK    5  A    between atoms: _16  and  _18
REMARK    6  A    between atoms: _18  and  _19
REMARK    7  A    between atoms: _18  and  _21
REMARK    8  A    between atoms: _21  and  _22
REMARK    9  A    between atoms: _28  and  _30
REMARK   10  A    between atoms: _30  and  _31
REMARK   11  A    between atoms: _30  and  _33
REMARK   12  A    between atoms: _36  and  _38
REMARK   13  A    between atoms: _38  and  _39
REMARK   14  A    between atoms: _38  and  _41
REMARK   15  A    between atoms: _41  and  _42
REMARK   16  A    between atoms: _45  and  _47
REMARK   17  A    between atoms: _47  and  _48
REMARK   18  A    between atoms: _47  and  _50
REMARK   19  A    between atoms: _50  and  _51
REMARK   20  A    between atoms: _54  and  _56
REMARK   21  A    between atoms: _56  and  _57
REMARK   22  A    between atoms: _56  and  _59
REMARK   23  A    between atoms: _59  and  _60
REMARK   24  A    between atoms: _60  and  _61
REMARK   25  A    between atoms: _64  and  _66
REMARK   26  A    between atoms: _66  and  _67
REMARK   27  A    between atoms: _66  and  _69
REMARK   28  A    between atoms: _69  and  _70
REMARK   29  A    between atoms: _73  and  _75
REMARK   30  A    between atoms: _75  and  _76
REMARK   31  A    between atoms: _79  and  _80
REMARK   32  A    between atoms: _85  and  _87
REMARK   33  A    between atoms: _87  and  _88
REMARK   34  A    between atoms: _87  and  _90
REMARK   35  A    between atoms: _90  and  _91
REMARK   36  A    between atoms: _94  and  _96
REMARK   37  A    between atoms: _96  and  _97
REMARK   38  A    between atoms: _100  and  _102
REMARK   39  A    between atoms: _102  and  _103
REMARK   40  A    between atoms: _102  and  _105
REMARK   41  A    between atoms: _105  and  _106
REMARK   42  A    between atoms: _109  and  _111
REMARK   43  A    between atoms: _111  and  _112
REMARK   44  A    between atoms: _114  and  _116
REMARK   45  A    between atoms: _116  and  _117
REMARK   46  A    between atoms: _116  and  _119
REMARK   47  A    between atoms: _119  and  _120
REMARK   48  A    between atoms: _123  and  _125
REMARK   49  A    between atoms: _125  and  _126
REMARK   50  A    between atoms: _125  and  _128
REMARK   51  A    between atoms: _128  and  _129
REMARK   52  A    between atoms: _132  and  _134
REMARK   53  A    between atoms: _134  and  _135
REMARK   54  A    between atoms: _134  and  _137
REMARK   55  A    between atoms: _137  and  _138
REMARK   56  A    between atoms: _143  and  _145
REMARK   57  A    between atoms: _145  and  _146
REMARK   58  A    between atoms: _148  and  _150
REMARK   59  A    between atoms: _150  and  _151
REMARK   60  A    between atoms: _150  and  _153
REMARK   61  A    between atoms: _153  and  _154
REMARK   62  A    between atoms: _157  and  _159
REMARK   63  A    between atoms: _159  and  _160
REMARK   64  A    between atoms: _159  and  _162
REMARK   65  A    between atoms: _162  and  _163
REMARK   66  A    between atoms: _166  and  _168
REMARK   67  A    between atoms: _168  and  _169
REMARK   68  A    between atoms: _168  and  _171
REMARK   69  A    between atoms: _171  and  _172
REMARK   70  A    between atoms: _172  and  _173
REMARK   71  A    between atoms: _175  and  _177
REMARK   72  A    between atoms: _177  and  _178
REMARK   73  A    between atoms: _177  and  _180
REMARK   74  A    between atoms: _180  and  _181
REMARK   75  A    between atoms: _186  and  _187
REMARK   76  A    between atoms: _189  and  _191
REMARK   77  A    between atoms: _191  and  _192
REMARK   78  A    between atoms: _191  and  _194
REMARK   79  A    between atoms: _194  and  _195
REMARK   80  A    between atoms: _198  and  _200
REMARK   81  A    between atoms: _200  and  _201
REMARK   82  A    between atoms: _200  and  _203
REMARK   83  A    between atoms: _206  and  _208
REMARK   84  A    between atoms: _208  and  _209
REMARK   85  A    between atoms: _212  and  _214
REMARK   86  A    between atoms: _214  and  _215
REMARK   87  A    between atoms: _214  and  _217
REMARK   88  A    between atoms: _217  and  _218
REMARK   89  A    between atoms: _221  and  _223
REMARK   90  A    between atoms: _223  and  _224
REMARK   91  A    between atoms: _223  and  _226
REMARK   92  A    between atoms: _229  and  _231
REMARK   93  A    between atoms: _231  and  _232
REMARK   94  A    between atoms: _231  and  _234
REMARK   95  A    between atoms: _234  and  _235
REMARK   96  A    between atoms: _238  and  _240
REMARK   97  A    between atoms: _240  and  _241
REMARK   98  A    between atoms: _240  and  _243
REMARK   99  A    between atoms: _243  and  _244
REMARK  100  A    between atoms: _250  and  _252
REMARK  101  A    between atoms: _252  and  _253
REMARK  102  A    between atoms: _252  and  _255
REMARK  103  A    between atoms: _255  and  _256
REMARK  104  A    between atoms: _259  and  _261
REMARK  105  A    between atoms: _261  and  _262
REMARK  106  A    between atoms: _261  and  _264
REMARK  107  A    between atoms: _266  and  _268
REMARK  108  A    between atoms: _268  and  _269
REMARK  109  A    between atoms: _268  and  _271
REMARK  110  A    between atoms: _271  and  _272
REMARK  111  A    between atoms: _277  and  _278
REMARK  112  A    between atoms: _280  and  _282
REMARK  113  A    between atoms: _282  and  _283
REMARK  114  A    between atoms: _282  and  _285
REMARK  115  A    between atoms: _285  and  _286
REMARK  116  A    between atoms: _291  and  _292
REMARK  117  A    between atoms: _294  and  _296
REMARK  118  A    between atoms: _296  and  _297
REMARK  119  A    between atoms: _296  and  _299
REMARK  120  A    between atoms: _299  and  _300
REMARK  121  A    between atoms: _303  and  _305
REMARK  122  A    between atoms: _305  and  _306
REMARK  123  A    between atoms: _305  and  _308
REMARK  124  A    between atoms: _308  and  _309
REMARK  125  A    between atoms: _312  and  _314
REMARK  126  A    between atoms: _314  and  _315
REMARK  127  A    between atoms: _314  and  _317
REMARK  128  A    between atoms: _317  and  _318
REMARK  129  A    between atoms: _320  and  _322
REMARK  130  A    between atoms: _322  and  _323
REMARK  131  A    between atoms: _322  and  _325
REMARK  132  A    between atoms: _325  and  _326
REMARK  133  A    between atoms: _326  and  _327
REMARK  134  A    between atoms: _327  and  _328
REMARK  135  A    between atoms: _337  and  _339
REMARK  136  A    between atoms: _339  and  _340
REMARK  137  A    between atoms: _342  and  _344
REMARK  138  A    between atoms: _344  and  _345
REMARK  139  A    between atoms: _344  and  _347
REMARK  140  A    between atoms: _350  and  _352
REMARK  141  A    between atoms: _352  and  _353
REMARK  142  A    between atoms: _352  and  _355
REMARK  143  A    between atoms: _355  and  _356
REMARK  144  A    between atoms: _359  and  _361
REMARK  145  A    between atoms: _361  and  _362
REMARK  146  A    between atoms: _364  and  _366
REMARK  147  A    between atoms: _366  and  _367
REMARK  148  A    between atoms: _366  and  _369
REMARK  149  A    between atoms: _369  and  _370
REMARK  150  A    between atoms: _373  and  _375
REMARK  151  A    between atoms: _375  and  _376
REMARK  152  A    between atoms: _375  and  _378
REMARK  153  A    between atoms: _378  and  _379
REMARK  154  A    between atoms: _379  and  _380
REMARK  155  A    between atoms: _385  and  _387
REMARK  156  A    between atoms: _387  and  _388
REMARK  157  A    between atoms: _390  and  _392
REMARK  158  A    between atoms: _392  and  _393
REMARK  159  A    between atoms: _392  and  _395
REMARK  160  A    between atoms: _395  and  _396
REMARK  161  A    between atoms: _402  and  _404
REMARK  162  A    between atoms: _404  and  _405
REMARK  163  A    between atoms: _407  and  _409
REMARK  164  A    between atoms: _409  and  _410
REMARK  165  A    between atoms: _409  and  _412
REMARK  166  A    between atoms: _412  and  _413
REMARK  167  A    between atoms: _416  and  _418
REMARK  168  A    between atoms: _418  and  _419
REMARK  169  A    between atoms: _418  and  _421
REMARK  170  A    between atoms: _421  and  _422
REMARK  171  A    between atoms: _424  and  _426
REMARK  172  A    between atoms: _426  and  _427
REMARK  173  A    between atoms: _426  and  _429
REMARK  174  A    between atoms: _429  and  _430
REMARK  175  A    between atoms: _430  and  _431
REMARK  176  A    between atoms: _436  and  _438
REMARK  177  A    between atoms: _438  and  _439
REMARK  178  A    between atoms: _438  and  _441
REMARK  179  A    between atoms: _441  and  _442
REMARK  180  A    between atoms: _445  and  _447
REMARK  181  A    between atoms: _447  and  _448
REMARK  182  A    between atoms: _447  and  _450
REMARK  183  A    between atoms: _450  and  _451
REMARK  184  A    between atoms: _453  and  _455
REMARK  185  A    between atoms: _455  and  _456
REMARK  186  A    between atoms: _458  and  _460
REMARK  187  A    between atoms: _460  and  _461
REMARK  188  A    between atoms: _460  and  _463
REMARK  189  A    between atoms: _463  and  _464
REMARK  190  A    between atoms: _466  and  _468
REMARK  191  A    between atoms: _468  and  _469
REMARK  192  A    between atoms: _472  and  _474
REMARK  193  A    between atoms: _474  and  _475
REMARK  194  A    between atoms: _474  and  _477
REMARK  195  A    between atoms: _477  and  _478
REMARK  196  A    between atoms: _481  and  _483
REMARK  197  A    between atoms: _483  and  _484
REMARK  198  A    between atoms: _483  and  _486
REMARK  199  A    between atoms: _489  and  _491
REMARK  200  A    between atoms: _491  and  _492
REMARK  201  A    between atoms: _491  and  _494
REMARK  202  A    between atoms: _494  and  _495
REMARK  203  A    between atoms: _495  and  _496
REMARK  204  A    between atoms: _496  and  _497
REMARK  205  A    between atoms: _497  and  _498
REMARK  206  A    between atoms: _502  and  _504
REMARK  207  A    between atoms: _504  and  _505
REMARK  208  A    between atoms: _504  and  _507
REMARK  209  A    between atoms: _511  and  _512
REMARK  210  A    between atoms: _517  and  _519
REMARK  211  A    between atoms: _519  and  _520
REMARK  212  A    between atoms: _519  and  _522
REMARK  213  A    between atoms: _522  and  _523
REMARK  214  A    between atoms: _523  and  _524
REMARK  215  A    between atoms: _529  and  _531
REMARK  216  A    between atoms: _531  and  _532
REMARK  217  A    between atoms: _531  and  _534
REMARK  218  A    between atoms: _534  and  _535
REMARK  219  A    between atoms: _538  and  _540
REMARK  220  A    between atoms: _540  and  _541
REMARK  221  A    between atoms: _540  and  _543
REMARK  222  A    between atoms: _543  and  _544
REMARK                            x       y       z     vdW  Elec       q    Type
REMARK                         _______ _______ _______ _____ _____    ______ ____
ROOT
ATOM      1  C   VAL A   2      52.562  25.172   8.059  0.00  0.00    +0.241 C 
ATOM      2  N   THR A   3      52.504  25.971   9.121  0.00  0.00    -0.295 N 
ATOM      3  H   THR A   3      53.136  25.790   9.927  0.00  0.00    +0.150 HD
ATOM      4  O   VAL A   2      51.849  25.326   7.069  0.00  0.00    -0.273 OA
ENDROOT
BRANCH   1   5
ATOM      5  CA  VAL A   2      53.572  24.028   8.124  0.00  0.00    +0.148 C 
BRANCH   5   8
ATOM      6  C   GLY A   1      53.134  21.929   6.965  0.00  0.00    +0.240 C 
ATOM      7  O   GLY A   1      52.745  21.383   7.999  0.00  0.00    -0.274 OA
ATOM      8  N   VAL A   2      53.536  23.196   6.925  0.00  0.00    -0.297 N 
ATOM      9  H   VAL A   2      53.832  23.605   6.016  0.00  0.00    +0.150 HD
BRANCH   6  10
ATOM     10  CA  GLY A   1      53.159  21.165   5.654  0.00  0.00    +0.169 C 
BRANCH  10  11
ATOM     11  N   GLY A   1      52.298  19.996   5.698  0.00  0.00    -0.236 NA
ATOM     12  H   GLY A   1      52.668  19.089   6.048  0.00  0.00    +0.142 HD
ENDBRANCH  10  11
ENDBRANCH   6  10
ENDBRANCH   5   8
BRANCH   5  13
ATOM     13  CB  VAL A   2      54.982  24.612   8.338  0.00  0.00    +0.027 C 
ATOM     14  CG2 VAL A   2      55.973  23.484   8.605  0.00  0.00    +0.002 C 
ATOM     15  CG1 VAL A   2      55.406  25.401   7.111  0.00  0.00    +0.002 C 
ENDBRANCH   5  13
ENDBRANCH   1   5
BRANCH   2  16
ATOM     16  CA  THR A   3      51.575  27.096   9.182  0.00  0.00    +0.176 C 
BRANCH  16  17
ATOM     17  C   THR A   3      51.917  28.141   8.125  0.00  0.00    +0.243 C 
ATOM     18  O   THR A   3      53.083  28.336   7.796  0.00  0.00    -0.273 OA
ATOM     19  N   GLY A   4      50.892  28.799   7.586  0.00  0.00    -0.296 N 
ATOM     20  H   GLY A   4      49.921  28.576   7.885  0.00  0.00    +0.150 HD
BRANCH  19  21
ATOM     21  CA  GLY A   4      51.119  29.827   6.583  0.00  0.00    +0.163 C 
BRANCH  21  22
ATOM     22  C   GLY A   4      49.904  30.153   5.734  0.00  0.00    +0.229 C 
ATOM     23  O   GLY A   4      48.949  29.343   5.705  0.00  0.00    -0.286 OA
ENDBRANCH  21  22
ENDBRANCH  19  21
ENDBRANCH  16  17
BRANCH  16  24
ATOM     24  CB  THR A   3      51.610  27.769  10.568  0.00  0.00    +0.137 C 
ATOM     25  CG2 THR A   3      51.411  26.732  11.659  0.00  0.00    +0.034 C 
BRANCH  24  26
ATOM     26  OG1 THR A   3      52.879  28.405  10.767  0.00  0.00    -0.382 OA
ATOM     27  HG1 THR A   3      53.017  29.090  10.066  0.00  0.00    +0.210 HD
ENDBRANCH  24  26
ENDBRANCH  16  24
ENDBRANCH   2  16
TORSDOF 11
REMARK  Name = ../refined-set-2016/2clh/2clh_pocket.pdb
REMARK  222 active torsions:
REMARK  status: ('A' for Active; 'I' for Inactive)
REMARK    1  A    between atoms: _1  and  _3
REMARK    2  A    between atoms: _3  and  _4
REMARK    3  A    between atoms: _3  and  _6
REMARK    4  A    between atoms: _10  and  _11
REMARK    5  A    between atoms: _16  and  _18
REMARK    6  A    between atoms: _18  and  _19
REMARK    7  A    between atoms: _18  and  _21
REMARK    8  A    between atoms: _21  and  _22
REMARK    9  A    between atoms: _28  and  _30
REMARK   10  A    between atoms: _30  and  _31
REMARK   11  A    between atoms: _30  and  _33
REMARK   12  A    between atoms: _36  and  _38
REMARK   13  A    between atoms: _38  and  _39
REMARK   14  A    between atoms: _38  and  _41
REMARK   15  A    between atoms: _41  and  _42
REMARK   16  A    between atoms: _45  and  _47
REMARK   17  A    between atoms: _47  and  _48
REMARK   18  A    between atoms: _47  and  _50
REMARK   19  A    between atoms: _50  and  _51
REMARK   20  A    between atoms: _54  and  _56
REMARK   21  A    between atoms: _56  and  _57
REMARK   22  A    between atoms: _56  and  _59
REMARK   23  A    between atoms: _59  and  _60
REMARK   24  A    between atoms: _60  and  _61
REMARK   25  A    between atoms: _64  and  _66
REMARK   26  A    between atoms: _66  and  _67
REMARK   27  A    between atoms: _66  and  _69
REMARK   28  A    between atoms: _69  and  _70
REMARK   29  A    between atoms: _73  and  _75
REMARK   30  A    between atoms: _75  and  _76
REMARK   31  A    between atoms: _79  and  _80
REMARK   32  A    between atoms: _85  and  _87
REMARK   33  A    between atoms: _87  and  _88
REMARK   34  A    between atoms: _87  and  _90
REMARK   35  A    between atoms: _90  and  _91
REMARK   36  A    between atoms: _94  and  _96
REMARK   37  A    between atoms: _96  and  _97
REMARK   38  A    between atoms: _100  and  _102
REMARK   39  A    between atoms: _102  and  _103
REMARK   40  A    between atoms: _102  and  _105
REMARK   41  A    between atoms: _105  and  _106
REMARK   42  A    between atoms: _109  and  _111
REMARK   43  A    between atoms: _111  and  _112
REMARK   44  A    between atoms: _114  and  _116
REMARK   45  A    between atoms: _116  and  _117
REMARK   46  A    between atoms: _116  and  _119
REMARK   47  A    between atoms: _119  and  _120
REMARK   48  A    between atoms: _123  and  _125
REMARK   49  A    between atoms: _125  and  _126
REMARK   50  A    between atoms: _125  and  _128
REMARK   51  A    between atoms: _128  and  _129
REMARK   52  A    between atoms: _132  and  _134
REMARK   53  A    between atoms: _134  and  _135
REMARK   54  A    between atoms: _134  and  _137
REMARK   55  A    between atoms: _137  and  _138
REMARK   56  A    between atoms: _143  and  _145
REMARK   57  A    between atoms: _145  and  _146
REMARK   58  A    between atoms: _148  and  _150
REMARK   59  A    between atoms: _150  and  _151
REMARK   60  A    between atoms: _150  and  _153
REMARK   61  A    between atoms: _153  and  _154
REMARK   62  A    between atoms: _157  and  _159
REMARK   63  A    between atoms: _159  and  _160
REMARK   64  A    between atoms: _159  and  _162
REMARK   65  A    between atoms: _162  and  _163
REMARK   66  A    between atoms: _166  and  _168
REMARK   67  A    between atoms: _168  and  _169
REMARK   68  A    between atoms: _168  and  _171
REMARK   69  A    between atoms: _171  and  _172
REMARK   70  A    between atoms: _172  and  _173
REMARK   71  A    between atoms: _175  and  _177
REMARK   72  A    between atoms: _177  and  _178
REMARK   73  A    between atoms: _177  and  _180
REMARK   74  A    between atoms: _180  and  _181
REMARK   75  A    between atoms: _186  and  _187
REMARK   76  A    between atoms: _189  and  _191
REMARK   77  A    between atoms: _191  and  _192
REMARK   78  A    between atoms: _191  and  _194
REMARK   79  A    between atoms: _194  and  _195
REMARK   80  A    between atoms: _198  and  _200
REMARK   81  A    between atoms: _200  and  _201
REMARK   82  A    between atoms: _200  and  _203
REMARK   83  A    between atoms: _206  and  _208
REMARK   84  A    between atoms: _208  and  _209
REMARK   85  A    between atoms: _212  and  _214
REMARK   86  A    between atoms: _214  and  _215
REMARK   87  A    between atoms: _214  and  _217
REMARK   88  A    between atoms: _217  and  _218
REMARK   89  A    between atoms: _221  and  _223
REMARK   90  A    between atoms: _223  and  _224
REMARK   91  A    between atoms: _223  and  _226
REMARK   92  A    between atoms: _229  and  _231
REMARK   93  A    between atoms: _231  and  _232
REMARK   94  A    between atoms: _231  and  _234
REMARK   95  A    between atoms: _234  and  _235
REMARK   96  A    between atoms: _238  and  _240
REMARK   97  A    between atoms: _240  and  _241
REMARK   98  A    between atoms: _240  and  _243
REMARK   99  A    between atoms: _243  and  _244
REMARK  100  A    between atoms: _250  and  _252
REMARK  101  A    between atoms: _252  and  _253
REMARK  102  A    between atoms: _252  and  _255
REMARK  103  A    between atoms: _255  and  _256
REMARK  104  A    between atoms: _259  and  _261
REMARK  105  A    between atoms: _261  and  _262
REMARK  106  A    between atoms: _261  and  _264
REMARK  107  A    between atoms: _266  and  _268
REMARK  108  A    between atoms: _268  and  _269
REMARK  109  A    between atoms: _268  and  _271
REMARK  110  A    between atoms: _271  and  _272
REMARK  111  A    between atoms: _277  and  _278
REMARK  112  A    between atoms: _280  and  _282
REMARK  113  A    between atoms: _282  and  _283
REMARK  114  A    between atoms: _282  and  _285
REMARK  115  A    between atoms: _285  and  _286
REMARK  116  A    between atoms: _291  and  _292
REMARK  117  A    between atoms: _294  and  _296
REMARK  118  A    between atoms: _296  and  _297
REMARK  119  A    between atoms: _296  and  _299
REMARK  120  A    between atoms: _299  and  _300
REMARK  121  A    between atoms: _303  and  _305
REMARK  122  A    between atoms: _305  and  _306
REMARK  123  A    between atoms: _305  and  _308
REMARK  124  A    between atoms: _308  and  _309
REMARK  125  A    between atoms: _312  and  _314
REMARK  126  A    between atoms: _314  and  _315
REMARK  127  A    between atoms: _314  and  _317
REMARK  128  A    between atoms: _317  and  _318
REMARK  129  A    between atoms: _320  and  _322
REMARK  130  A    between atoms: _322  and  _323
REMARK  131  A    between atoms: _322  and  _325
REMARK  132  A    between atoms: _325  and  _326
REMARK  133  A    between atoms: _326  and  _327
REMARK  134  A    between atoms: _327  and  _328
REMARK  135  A    between atoms: _337  and  _339
REMARK  136  A    between atoms: _339  and  _340
REMARK  137  A    between atoms: _342  and  _344
REMARK  138  A    between atoms: _344  and  _345
REMARK  139  A    between atoms: _344  and  _347
REMARK  140  A    between atoms: _350  and  _352
REMARK  141  A    between atoms: _352  and  _353
REMARK  142  A    between atoms: _352  and  _355
REMARK  143  A    between atoms: _355  and  _356
REMARK  144  A    between atoms: _359  and  _361
REMARK  145  A    between atoms: _361  and  _362
REMARK  146  A    between atoms: _364  and  _366
REMARK  147  A    between atoms: _366  and  _367
REMARK  148  A    between atoms: _366  and  _369
REMARK  149  A    between atoms: _369  and  _370
REMARK  150  A    between atoms: _373  and  _375
REMARK  151  A    between atoms: _375  and  _376
REMARK  152  A    between atoms: _375  and  _378
REMARK  153  A    between atoms: _378  and  _379
REMARK  154  A    between atoms: _379  and  _380
REMARK  155  A    between atoms: _385  and  _387
REMARK  156  A    between atoms: _387  and  _388
REMARK  157  A    between atoms: _390  and  _392
REMARK  158  A    between atoms: _392  and  _393
REMARK  159  A    between atoms: _392  and  _395
REMARK  160  A    between atoms: _395  and  _396
REMARK  161  A    between atoms: _402  and  _404
REMARK  162  A    between atoms: _404  and  _405
REMARK  163  A    between atoms: _407  and  _409
REMARK  164  A    between atoms: _409  and  _410
REMARK  165  A    between atoms: _409  and  _412
REMARK  166  A    between atoms: _412  and  _413
REMARK  167  A    between atoms: _416  and  _418
REMARK  168  A    between atoms: _418  and  _419
REMARK  169  A    between atoms: _418  and  _421
REMARK  170  A    between atoms: _421  and  _422
REMARK  171  A    between atoms: _424  and  _426
REMARK  172  A    between atoms: _426  and  _427
REMARK  173  A    between atoms: _426  and  _429
REMARK  174  A    between atoms: _429  and  _430
REMARK  175  A    between atoms: _430  and  _431
REMARK  176  A    between atoms: _436  and  _438
REMARK  177  A    between atoms: _438  and  _439
REMARK  178  A    between atoms: _438  and  _441
REMARK  179  A    between atoms: _441  and  _442
REMARK  180  A    between atoms: _445  and  _447
REMARK  181  A    between atoms: _447  and  _448
REMARK  182  A    between atoms: _447  and  _450
REMARK  183  A    between atoms: _450  and  _451
REMARK  184  A    between atoms: _453  and  _455
REMARK  185  A    between atoms: _455  and  _456
REMARK  186  A    between atoms: _458  and  _460
REMARK  187  A    between atoms: _460  and  _461
REMARK  188  A    between atoms: _460  and  _463
REMARK  189  A    between atoms: _463  and  _464
REMARK  190  A    between atoms: _466  and  _468
REMARK  191  A    between atoms: _468  and  _469
REMARK  192  A    between atoms: _472  and  _474
REMARK  193  A    between atoms: _474  and  _475
REMARK  194  A    between atoms: _474  and  _477
REMARK  195  A    between atoms: _477  and  _478
REMARK  196  A    between atoms: _481  and  _483
REMARK  197  A    between atoms: _483  and  _484
REMARK  198  A    between atoms: _483  and  _486
REMARK  199  A    between atoms: _489  and  _491
REMARK  200  A    between atoms: _491  and  _492
REMARK  201  A    between atoms: _491  and  _494
REMARK  202  A    between atoms: _494  and  _495
REMARK  203  A    between atoms: _495  and  _496
REMARK  204  A    between atoms: _496  and  _497
REMARK  205  A    between atoms: _497  and  _498
REMARK  206  A    between atoms: _502  and  _504
REMARK  207  A    between atoms: _504  and  _505
REMARK  208  A    between atoms: _504  and  _507
REMARK  209  A    between atoms: _511  and  _512
REMARK  210  A    between atoms: _517  and  _519
REMARK  211  A    between atoms: _519  and  _520
REMARK  212  A    between atoms: _519  and  _522
REMARK  213  A    between atoms: _522  and  _523
REMARK  214  A    between atoms: _523  and  _524
REMARK  215  A    between atoms: _529  and  _531
REMARK  216  A    between atoms: _531  and  _532
REMARK  217  A    between atoms: _531  and  _534
REMARK  218  A    between atoms: _534  and  _535
REMARK  219  A    between atoms: _538  and  _540
REMARK  220  A    between atoms: _540  and  _541
REMARK  221  A    between atoms: _540  and  _543
REMARK  222  A    between atoms: _543  and  _544
REMARK                            x       y       z     vdW  Elec       q    Type
REMARK                         _______ _______ _______ _____ _____    ______ ____
ROOT
ATOM      1  CA  PHE A   4      46.108  25.856   8.712  0.00  0.00    +0.153 C 
ENDROOT
BRANCH   1   2
ATOM      2  C   PHE A   4      45.571  26.395   7.388  0.00  0.00    +0.241 C 
ATOM      3  N   GLY A   5      46.097  27.542   6.972  0.00  0.00    -0.295 N 
ATOM      4  H   GLY A   5      46.815  28.021   7.553  0.00  0.00    +0.150 HD
ATOM      5  O   PHE A   4      44.688  25.800   6.768  0.00  0.00    -0.273 OA
BRANCH   3   6
ATOM      6  CA  GLY A   5      45.679  28.133   5.714  0.00  0.00    +0.176 C 
BRANCH   6   7
ATOM      7  C   GLY A   5      44.369  28.904   5.704  0.00  0.00    +0.243 C 
ATOM      8  N   ILE A   6      43.669  28.968   6.838  0.00  0.00    -0.297 N 
ATOM      9  H   ILE A   6      44.031  28.490   7.688  0.00  0.00    +0.150 HD
ATOM     10  O   GLY A   5      43.992  29.432   4.658  0.00  0.00    -0.273 OA
BRANCH   8  11
ATOM     11  CA  ILE A   6      42.399  29.699   6.909  0.00  0.00    +0.149 C 
BRANCH  11  12
ATOM     12  C   ILE A   6      42.679  31.198   6.979  0.00  0.00    +0.241 C 
ATOM     13  O   ILE A   6      43.109  31.703   8.019  0.00  0.00    -0.273 OA
ATOM     14  N   SER A   7      42.416  31.914   5.888  0.00  0.00    -0.296 N 
ATOM     15  H   SER A   7      42.013  31.448   5.051  0.00  0.00    +0.150 HD
BRANCH  14  16
ATOM     16  CA  SER A   7      42.689  33.350   5.856  0.00  0.00    +0.166 C 
BRANCH  16  17
ATOM     17  CB  SER A   7      41.562  34.221   5.306  0.00  0.00    +0.229 C 
ATOM     18  OG  SER A   7      41.731  35.432   5.164  0.00  0.00    -0.286 OA
ENDBRANCH  16  17
BRANCH  16  19
ATOM     19  C   SER A   7      43.947  33.608   5.030  0.00  0.00    +0.165 C 
BRANCH  19  20
ATOM     20  O   SER A   7      43.725  33.249   3.676  0.00  0.00    -0.380 OA
ATOM     21  H   SER A   7      44.547  33.421   3.151  0.00  0.00    +0.211 HD
ENDBRANCH  19  20
ENDBRANCH  16  19
ENDBRANCH  14  16
ENDBRANCH  11  12
BRANCH  11  22
ATOM     22  CB  ILE A   6      41.582  29.320   8.165  0.00  0.00    +0.027 C 
ATOM     23  CG2 ILE A   6      40.315  30.167   8.226  0.00  0.00    +0.002 C 
BRANCH  22  24
ATOM     24  CG1 ILE A   6      41.229  27.828   8.148  0.00  0.00    +0.002 C 
ATOM     25  CD1 ILE A   6      40.328  27.411   7.010  0.00  0.00    +0.000 C 
ENDBRANCH  22  24
ENDBRANCH  11  22
ENDBRANCH   8  11
ENDBRANCH   6   7
ENDBRANCH   3   6
ENDBRANCH   1   2
BRANCH   1  27
ATOM     26  C   GLY A   3      44.289  24.828  10.042  0.00  0.00    +0.243 C 
ATOM     27  N   PHE A   4      45.066  25.869   9.741  0.00  0.00    -0.297 N 
ATOM     28  H   PHE A   4      44.922  26.751  10.274  0.00  0.00    +0.150 HD
ATOM     29  O   GLY A   3      44.382  23.721   9.509  0.00  0.00    -0.273 OA
BRANCH  26  30
ATOM     30  CA  GLY A   3      43.262  25.075  11.129  0.00  0.00    +0.176 C 
BRANCH  30  33
ATOM     31  C   GLN A   2      40.924  24.501  11.332  0.00  0.00    +0.241 C 
ATOM     32  O   GLN A   2      40.605  25.668  11.583  0.00  0.00    -0.273 OA
ATOM     33  N   GLY A   3      42.175  24.116  11.100  0.00  0.00    -0.295 N 
ATOM     34  H   GLY A   3      42.376  23.116  10.896  0.00  0.00    +0.150 HD
BRANCH  31  35
ATOM     35  CA  GLN A   2      39.874  23.407  11.278  0.00  0.00    +0.149 C 
BRANCH  35  38
ATOM     36  C   LEU A   1      39.309  23.019  13.597  0.00  0.00    +0.238 C 
ATOM     37  O   LEU A   1      40.371  22.423  13.787  0.00  0.00    -0.274 OA
ATOM     38  N   GLN A   2      38.969  23.520  12.414  0.00  0.00    -0.297 N 
ATOM     39  H   GLN A   2      38.051  23.996  12.298  0.00  0.00    +0.150 HD
BRANCH  36  40
ATOM     40  CA  LEU A   1      38.307  23.181  14.732  0.00  0.00    +0.145 C 
BRANCH  40  41
ATOM     41  N   LEU A   1      37.972  21.816  15.102  0.00  0.00    -0.238 NA
ATOM     42  H   LEU A   1      38.736  21.172  15.391  0.00  0.00    +0.142 HD
ENDBRANCH  40  41
BRANCH  40  43
ATOM     43  CB  LEU A   1      38.957  23.906  15.910  0.00  0.00    +0.026 C 
BRANCH  43  44
ATOM     44  CG  LEU A   1      38.260  25.156  16.448  0.00  0.00    +0.002 C 
ATOM     45  CD2 LEU A   1      38.853  25.504  17.804  0.00  0.00    +0.000 C 
ATOM     46  CD1 LEU A   1      36.758  24.934  16.544  0.00  0.00    +0.000 C 
ENDBRANCH  43  44
ENDBRANCH  40  43
ENDBRANCH  36  40
ENDBRANCH  35  38
BRANCH  35  47
ATOM     47  CB  GLN A   2      39.109  23.509   9.960  0.00  0.00    +0.039 C 
BRANCH  47  48
ATOM     48  CG  GLN A   2      39.934  23.075   8.758  0.00  0.00    +0.087 C 
BRANCH  48  49
ATOM     49  CD  GLN A   2      39.167  23.191   7.464  0.00  0.00    +0.219 C 
ATOM     50  OE1 GLN A   2      37.993  22.835   7.397  0.00  0.00    -0.275 OA
ATOM     51  NE2 GLN A   2      39.829  23.681   6.423  0.00  0.00    -0.329 N 
ATOM     52 HE21 GLN A   2      40.823  23.969   6.528  0.00  0.00    +0.145 HD
ATOM     53 HE22 GLN A   2      39.354  23.776   5.503  0.00  0.00    +0.145 HD
ENDBRANCH  48  49
ENDBRANCH  47  48
ENDBRANCH  35  47
ENDBRANCH  31  35
ENDBRANCH  30  33
ENDBRANCH  26  30
ENDBRANCH   1  27
BRANCH   1  54
ATOM     54  CB  PHE A   4      46.677  24.444   8.497  0.00  0.00    +0.055 C 
BRANCH  54  55
ATOM     55  CG  PHE A   4      47.816  24.089   9.422  0.00  0.00    -0.020 A 
ATOM     56  CD2 PHE A   4      47.748  24.378  10.782  0.00  0.00    -0.004 A 
ATOM     57  CE2 PHE A   4      48.792  24.025  11.644  0.00  0.00    -0.000 A 
ATOM     58  CZ  PHE A   4      49.916  23.373  11.142  0.00  0.00    -0.000 A 
ATOM     59  CE1 PHE A   4      49.995  23.080   9.783  0.00  0.00    -0.000 A 
ATOM     60  CD1 PHE A   4      48.946  23.440   8.933  0.00  0.00    -0.004 A 
ENDBRANCH  54  55
ENDBRANCH   1  54
TORSDOF 25
REMARK  Name = ../refined-set-2016/2clh/2clh_pocket.pdb
REMARK  222 active torsions:
REMARK  status: ('A' for Active; 'I' for Inactive)
REMARK    1  A    between atoms: _1  and  _3
REMARK    2  A    between atoms: _3  and  _4
REMARK    3  A    between atoms: _3  and  _6
REMARK    4  A    between atoms: _10  and  _11
REMARK    5  A    between atoms: _16  and  _18
REMARK    6  A    between atoms: _18  and  _19
REMARK    7  A    between atoms: _18  and  _21
REMARK    8  A    between atoms: _21  and  _22
REMARK    9  A    between atoms: _28  and  _30
REMARK   10  A    between atoms: _30  and  _31
REMARK   11  A    between atoms: _30  and  _33
REMARK   12  A    between atoms: _36  and  _38
REMARK   13  A    between atoms: _38  and  _39
REMARK   14  A    between atoms: _38  and  _41
REMARK   15  A    between atoms: _41  and  _42
REMARK   16  A    between atoms: _45  and  _47
REMARK   17  A    between atoms: _47  and  _48
REMARK   18  A    between atoms: _47  and  _50
REMARK   19  A    between atoms: _50  and  _51
REMARK   20  A    between atoms: _54  and  _56
REMARK   21  A    between atoms: _56  and  _57
REMARK   22  A    between atoms: _56  and  _59
REMARK   23  A    between atoms: _59  and  _60
REMARK   24  A    between atoms: _60  and  _61
REMARK   25  A    between atoms: _64  and  _66
REMARK   26  A    between atoms: _66  and  _67
REMARK   27  A    between atoms: _66  and  _69
REMARK   28  A    between atoms: _69  and  _70
REMARK   29  A    between atoms: _73  and  _75
REMARK   30  A    between atoms: _75  and  _76
REMARK   31  A    between atoms: _79  and  _80
REMARK   32  A    between atoms: _85  and  _87
REMARK   33  A    between atoms: _87  and  _88
REMARK   34  A    between atoms: _87  and  _90
REMARK   35  A    between atoms: _90  and  _91
REMARK   36  A    between atoms: _94  and  _96
REMARK   37  A    between atoms: _96  and  _97
REMARK   38  A    between atoms: _100  and  _102
REMARK   39  A    between atoms: _102  and  _103
REMARK   40  A    between atoms: _102  and  _105
REMARK   41  A    between atoms: _105  and  _106
REMARK   42  A    between atoms: _109  and  _111
REMARK   43  A    between atoms: _111  and  _112
REMARK   44  A    between atoms: _114  and  _116
REMARK   45  A    between atoms: _116  and  _117
REMARK   46  A    between atoms: _116  and  _119
REMARK   47  A    between atoms: _119  and  _120
REMARK   48  A    between atoms: _123  and  _125
REMARK   49  A    between atoms: _125  and  _126
REMARK   50  A    between atoms: _125  and  _128
REMARK   51  A    between atoms: _128  and  _129
REMARK   52  A    between atoms: _132  and  _134
REMARK   53  A    between atoms: _134  and  _135
REMARK   54  A    between atoms: _134  and  _137
REMARK   55  A    between atoms: _137  and  _138
REMARK   56  A    between atoms: _143  and  _145
REMARK   57  A    between atoms: _145  and  _146
REMARK   58  A    between atoms: _148  and  _150
REMARK   59  A    between atoms: _150  and  _151
REMARK   60  A    between atoms: _150  and  _153
REMARK   61  A    between atoms: _153  and  _154
REMARK   62  A    between atoms: _157  and  _159
REMARK   63  A    between atoms: _159  and  _160
REMARK   64  A    between atoms: _159  and  _162
REMARK   65  A    between atoms: _162  and  _163
REMARK   66  A    between atoms: _166  and  _168
REMARK   67  A    between atoms: _168  and  _169
REMARK   68  A    between atoms: _168  and  _171
REMARK   69  A    between atoms: _171  and  _172
REMARK   70  A    between atoms: _172  and  _173
REMARK   71  A    between atoms: _175  and  _177
REMARK   72  A    between atoms: _177  and  _178
REMARK   73  A    between atoms: _177  and  _180
REMARK   74  A    between atoms: _180  and  _181
REMARK   75  A    between atoms: _186  and  _187
REMARK   76  A    between atoms: _189  and  _191
REMARK   77  A    between atoms: _191  and  _192
REMARK   78  A    between atoms: _191  and  _194
REMARK   79  A    between atoms: _194  and  _195
REMARK   80  A    between atoms: _198  and  _200
REMARK   81  A    between atoms: _200  and  _201
REMARK   82  A    between atoms: _200  and  _203
REMARK   83  A    between atoms: _206  and  _208
REMARK   84  A    between atoms: _208  and  _209
REMARK   85  A    between atoms: _212  and  _214
REMARK   86  A    between atoms: _214  and  _215
REMARK   87  A    between atoms: _214  and  _217
REMARK   88  A    between atoms: _217  and  _218
REMARK   89  A    between atoms: _221  and  _223
REMARK   90  A    between atoms: _223  and  _224
REMARK   91  A    between atoms: _223  and  _226
REMARK   92  A    between atoms: _229  and  _231
REMARK   93  A    between atoms: _231  and  _232
REMARK   94  A    between atoms: _231  and  _234
REMARK   95  A    between atoms: _234  and  _235
REMARK   96  A    between atoms: _238  and  _240
REMARK   97  A    between atoms: _240  and  _241
REMARK   98  A    between atoms: _240  and  _243
REMARK   99  A    between atoms: _243  and  _244
REMARK  100  A    between atoms: _250  and  _252
REMARK  101  A    between atoms: _252  and  _253
REMARK  102  A    between atoms: _252  and  _255
REMARK  103  A    between atoms: _255  and  _256
REMARK  104  A    between atoms: _259  and  _261
REMARK  105  A    between atoms: _261  and  _262
REMARK  106  A    between atoms: _261  and  _264
REMARK  107  A    between atoms: _266  and  _268
REMARK  108  A    between atoms: _268  and  _269
REMARK  109  A    between atoms: _268  and  _271
REMARK  110  A    between atoms: _271  and  _272
REMARK  111  A    between atoms: _277  and  _278
REMARK  112  A    between atoms: _280  and  _282
REMARK  113  A    between atoms: _282  and  _283
REMARK  114  A    between atoms: _282  and  _285
REMARK  115  A    between atoms: _285  and  _286
REMARK  116  A    between atoms: _291  and  _292
REMARK  117  A    between atoms: _294  and  _296
REMARK  118  A    between atoms: _296  and  _297
REMARK  119  A    between atoms: _296  and  _299
REMARK  120  A    between atoms: _299  and  _300
REMARK  121  A    between atoms: _303  and  _305
REMARK  122  A    between atoms: _305  and  _306
REMARK  123  A    between atoms: _305  and  _308
REMARK  124  A    between atoms: _308  and  _309
REMARK  125  A    between atoms: _312  and  _314
REMARK  126  A    between atoms: _314  and  _315
REMARK  127  A    between atoms: _314  and  _317
REMARK  128  A    between atoms: _317  and  _318
REMARK  129  A    between atoms: _320  and  _322
REMARK  130  A    between atoms: _322  and  _323
REMARK  131  A    between atoms: _322  and  _325
REMARK  132  A    between atoms: _325  and  _326
REMARK  133  A    between atoms: _326  and  _327
REMARK  134  A    between atoms: _327  and  _328
REMARK  135  A    between atoms: _337  and  _339
REMARK  136  A    between atoms: _339  and  _340
REMARK  137  A    between atoms: _342  and  _344
REMARK  138  A    between atoms: _344  and  _345
REMARK  139  A    between atoms: _344  and  _347
REMARK  140  A    between atoms: _350  and  _352
REMARK  141  A    between atoms: _352  and  _353
REMARK  142  A    between atoms: _352  and  _355
REMARK  143  A    between atoms: _355  and  _356
REMARK  144  A    between atoms: _359  and  _361
REMARK  145  A    between atoms: _361  and  _362
REMARK  146  A    between atoms: _364  and  _366
REMARK  147  A    between atoms: _366  and  _367
REMARK  148  A    between atoms: _366  and  _369
REMARK  149  A    between atoms: _369  and  _370
REMARK  150  A    between atoms: _373  and  _375
REMARK  151  A    between atoms: _375  and  _376
REMARK  152  A    between atoms: _375  and  _378
REMARK  153  A    between atoms: _378  and  _379
REMARK  154  A    between atoms: _379  and  _380
REMARK  155  A    between atoms: _385  and  _387
REMARK  156  A    between atoms: _387  and  _388
REMARK  157  A    between atoms: _390  and  _392
REMARK  158  A    between atoms: _392  and  _393
REMARK  159  A    between atoms: _392  and  _395
REMARK  160  A    between atoms: _395  and  _396
REMARK  161  A    between atoms: _402  and  _404
REMARK  162  A    between atoms: _404  and  _405
REMARK  163  A    between atoms: _407  and  _409
REMARK  164  A    between atoms: _409  and  _410
REMARK  165  A    between atoms: _409  and  _412
REMARK  166  A    between atoms: _412  and  _413
REMARK  167  A    between atoms: _416  and  _418
REMARK  168  A    between atoms: _418  and  _419
REMARK  169  A    between atoms: _418  and  _421
REMARK  170  A    between atoms: _421  and  _422
REMARK  171  A    between atoms: _424  and  _426
REMARK  172  A    between atoms: _426  and  _427
REMARK  173  A    between atoms: _426  and  _429
REMARK  174  A    between atoms: _429  and  _430
REMARK  175  A    between atoms: _430  and  _431
REMARK  176  A    between atoms: _436  and  _438
REMARK  177  A    between atoms: _438  and  _439
REMARK  178  A    between atoms: _438  and  _441
REMARK  179  A    between atoms: _441  and  _442
REMARK  180  A    between atoms: _445  and  _447
REMARK  181  A    between atoms: _447  and  _448
REMARK  182  A    between atoms: _447  and  _450
REMARK  183  A    between atoms: _450  and  _451
REMARK  184  A    between atoms: _453  and  _455
REMARK  185  A    between atoms: _455  and  _456
REMARK  186  A    between atoms: _458  and  _460
REMARK  187  A    between atoms: _460  and  _461
REMARK  188  A    between atoms: _460  and  _463
REMARK  189  A    between atoms: _463  and  _464
REMARK  190  A    between atoms: _466  and  _468
REMARK  191  A    between atoms: _468  and  _469
REMARK  192  A    between atoms: _472  and  _474
REMARK  193  A    between atoms: _474  and  _475
REMARK  194  A    between atoms: _474  and  _477
REMARK  195  A    between atoms: _477  and  _478
REMARK  196  A    between atoms: _481  and  _483
REMARK  197  A    between atoms: _483  and  _484
REMARK  198  A    between atoms: _483  and  _486
REMARK  199  A    between atoms: _489  and  _491
REMARK  200  A    between atoms: _491  and  _492
REMARK  201  A    between atoms: _491  and  _494
REMARK  202  A    between atoms: _494  and  _495
REMARK  203  A    between atoms: _495  and  _496
REMARK  204  A    between atoms: _496  and  _497
REMARK  205  A    between atoms: _497  and  _498
REMARK  206  A    between atoms: _502  and  _504
REMARK  207  A    between atoms: _504  and  _505
REMARK  208  A    between atoms: _504  and  _507
REMARK  209  A    between atoms: _511  and  _512
REMARK  210  A    between atoms: _517  and  _519
REMARK  211  A    between atoms: _519  and  _520
REMARK  212  A    between atoms: _519  and  _522
REMARK  213  A    between atoms: _522  and  _523
REMARK  214  A    between atoms: _523  and  _524
REMARK  215  A    between atoms: _529  and  _531
REMARK  216  A    between atoms: _531  and  _532
REMARK  217  A    between atoms: _531  and  _534
REMARK  218  A    between atoms: _534  and  _535
REMARK  219  A    between atoms: _538  and  _540
REMARK  220  A    between atoms: _540  and  _541
REMARK  221  A    between atoms: _540  and  _543
REMARK  222  A    between atoms: _543  and  _544
REMARK                            x       y       z     vdW  Elec       q    Type
REMARK                         _______ _______ _______ _____ _____    ______ ____
ROOT
ATOM      1  CB  GLN A   1      38.458  29.631   4.556  0.00  0.00    +0.035 C 
ENDROOT
BRANCH   1   2
ATOM      2  CA  GLN A   1      36.947  29.469   4.391  0.00  0.00    +0.134 C 
BRANCH   2   3
ATOM      3  N   GLN A   1      36.351  30.702   3.886  0.00  0.00    -0.239 NA
ATOM      4  H   GLN A   1      36.896  31.587   3.908  0.00  0.00    +0.142 HD
ENDBRANCH   2   3
BRANCH   2   5
ATOM      5  C   GLN A   1      36.313  29.097   5.726  0.00  0.00    +0.224 C 
ATOM      6  O   GLN A   1      36.155  27.918   6.041  0.00  0.00    -0.287 OA
ENDBRANCH   2   5
ENDBRANCH   1   2
BRANCH   1   7
ATOM      7  CG  GLN A   1      39.221  29.586   3.247  0.00  0.00    +0.087 C 
BRANCH   7   8
ATOM      8  CD  GLN A   1      40.700  29.833   3.438  0.00  0.00    +0.219 C 
ATOM      9  OE1 GLN A   1      41.124  30.958   3.699  0.00  0.00    -0.275 OA
ATOM     10  NE2 GLN A   1      41.497  28.774   3.320  0.00  0.00    -0.329 N 
ATOM     11 HE21 GLN A   1      42.524  28.879   3.450  0.00  0.00    +0.145 HD
ATOM     12 HE22 GLN A   1      41.093  27.842   3.098  0.00  0.00    +0.145 HD
ENDBRANCH   7   8
ENDBRANCH   1   7
TORSDOF 5
REMARK  Name = ../refined-set-2016/2clh/2clh_pocket.pdb
REMARK  222 active torsions:
REMARK  status: ('A' for Active; 'I' for Inactive)
REMARK    1  A    between atoms: _1  and  _3
REMARK    2  A    between atoms: _3  and  _4
REMARK    3  A    between atoms: _3  and  _6
REMARK    4  A    between atoms: _10  and  _11
REMARK    5  A    between atoms: _16  and  _18
REMARK    6  A    between atoms: _18  and  _19
REMARK    7  A    between atoms: _18  and  _21
REMARK    8  A    between atoms: _21  and  _22
REMARK    9  A    between atoms: _28  and  _30
REMARK   10  A    between atoms: _30  and  _31
REMARK   11  A    between atoms: _30  and  _33
REMARK   12  A    between atoms: _36  and  _38
REMARK   13  A    between atoms: _38  and  _39
REMARK   14  A    between atoms: _38  and  _41
REMARK   15  A    between atoms: _41  and  _42
REMARK   16  A    between atoms: _45  and  _47
REMARK   17  A    between atoms: _47  and  _48
REMARK   18  A    between atoms: _47  and  _50
REMARK   19  A    between atoms: _50  and  _51
REMARK   20  A    between atoms: _54  and  _56
REMARK   21  A    between atoms: _56  and  _57
REMARK   22  A    between atoms: _56  and  _59
REMARK   23  A    between atoms: _59  and  _60
REMARK   24  A    between atoms: _60  and  _61
REMARK   25  A    between atoms: _64  and  _66
REMARK   26  A    between atoms: _66  and  _67
REMARK   27  A    between atoms: _66  and  _69
REMARK   28  A    between atoms: _69  and  _70
REMARK   29  A    between atoms: _73  and  _75
REMARK   30  A    between atoms: _75  and  _76
REMARK   31  A    between atoms: _79  and  _80
REMARK   32  A    between atoms: _85  and  _87
REMARK   33  A    between atoms: _87  and  _88
REMARK   34  A    between atoms: _87  and  _90
REMARK   35  A    between atoms: _90  and  _91
REMARK   36  A    between atoms: _94  and  _96
REMARK   37  A    between atoms: _96  and  _97
REMARK   38  A    between atoms: _100  and  _102
REMARK   39  A    between atoms: _102  and  _103
REMARK   40  A    between atoms: _102  and  _105
REMARK   41  A    between atoms: _105  and  _106
REMARK   42  A    between atoms: _109  and  _111
REMARK   43  A    between atoms: _111  and  _112
REMARK   44  A    between atoms: _114  and  _116
REMARK   45  A    between atoms: _116  and  _117
REMARK   46  A    between atoms: _116  and  _119
REMARK   47  A    between atoms: _119  and  _120
REMARK   48  A    between atoms: _123  and  _125
REMARK   49  A    between atoms: _125  and  _126
REMARK   50  A    between atoms: _125  and  _128
REMARK   51  A    between atoms: _128  and  _129
REMARK   52  A    between atoms: _132  and  _134
REMARK   53  A    between atoms: _134  and  _135
REMARK   54  A    between atoms: _134  and  _137
REMARK   55  A    between atoms: _137  and  _138
REMARK   56  A    between atoms: _143  and  _145
REMARK   57  A    between atoms: _145  and  _146
REMARK   58  A    between atoms: _148  and  _150
REMARK   59  A    between atoms: _150  and  _151
REMARK   60  A    between atoms: _150  and  _153
REMARK   61  A    between atoms: _153  and  _154
REMARK   62  A    between atoms: _157  and  _159
REMARK   63  A    between atoms: _159  and  _160
REMARK   64  A    between atoms: _159  and  _162
REMARK   65  A    between atoms: _162  and  _163
REMARK   66  A    between atoms: _166  and  _168
REMARK   67  A    between atoms: _168  and  _169
REMARK   68  A    between atoms: _168  and  _171
REMARK   69  A    between atoms: _171  and  _172
REMARK   70  A    between atoms: _172  and  _173
REMARK   71  A    between atoms: _175  and  _177
REMARK   72  A    between atoms: _177  and  _178
REMARK   73  A    between atoms: _177  and  _180
REMARK   74  A    between atoms: _180  and  _181
REMARK   75  A    between atoms: _186  and  _187
REMARK   76  A    between atoms: _189  and  _191
REMARK   77  A    between atoms: _191  and  _192
REMARK   78  A    between atoms: _191  and  _194
REMARK   79  A    between atoms: _194  and  _195
REMARK   80  A    between atoms: _198  and  _200
REMARK   81  A    between atoms: _200  and  _201
REMARK   82  A    between atoms: _200  and  _203
REMARK   83  A    between atoms: _206  and  _208
REMARK   84  A    between atoms: _208  and  _209
REMARK   85  A    between atoms: _212  and  _214
REMARK   86  A    between atoms: _214  and  _215
REMARK   87  A    between atoms: _214  and  _217
REMARK   88  A    between atoms: _217  and  _218
REMARK   89  A    between atoms: _221  and  _223
REMARK   90  A    between atoms: _223  and  _224
REMARK   91  A    between atoms: _223  and  _226
REMARK   92  A    between atoms: _229  and  _231
REMARK   93  A    between atoms: _231  and  _232
REMARK   94  A    between atoms: _231  and  _234
REMARK   95  A    between atoms: _234  and  _235
REMARK   96  A    between atoms: _238  and  _240
REMARK   97  A    between atoms: _240  and  _241
REMARK   98  A    between atoms: _240  and  _243
REMARK   99  A    between atoms: _243  and  _244
REMARK  100  A    between atoms: _250  and  _252
REMARK  101  A    between atoms: _252  and  _253
REMARK  102  A    between atoms: _252  and  _255
REMARK  103  A    between atoms: _255  and  _256
REMARK  104  A    between atoms: _259  and  _261
REMARK  105  A    between atoms: _261  and  _262
REMARK  106  A    between atoms: _261  and  _264
REMARK  107  A    between atoms: _266  and  _268
REMARK  108  A    between atoms: _268  and  _269
REMARK  109  A    between atoms: _268  and  _271
REMARK  110  A    between atoms: _271  and  _272
REMARK  111  A    between atoms: _277  and  _278
REMARK  112  A    between atoms: _280  and  _282
REMARK  113  A    between atoms: _282  and  _283
REMARK  114  A    between atoms: _282  and  _285
REMARK  115  A    between atoms: _285  and  _286
REMARK  116  A    between atoms: _291  and  _292
REMARK  117  A    between atoms: _294  and  _296
REMARK  118  A    between atoms: _296  and  _297
REMARK  119  A    between atoms: _296  and  _299
REMARK  120  A    between atoms: _299  and  _300
REMARK  121  A    between atoms: _303  and  _305
REMARK  122  A    between atoms: _305  and  _306
REMARK  123  A    between atoms: _305  and  _308
REMARK  124  A    between atoms: _308  and  _309
REMARK  125  A    between atoms: _312  and  _314
REMARK  126  A    between atoms: _314  and  _315
REMARK  127  A    between atoms: _314  and  _317
REMARK  128  A    between atoms: _317  and  _318
REMARK  129  A    between atoms: _320  and  _322
REMARK  130  A    between atoms: _322  and  _323
REMARK  131  A    between atoms: _322  and  _325
REMARK  132  A    between atoms: _325  and  _326
REMARK  133  A    between atoms: _326  and  _327
REMARK  134  A    between atoms: _327  and  _328
REMARK  135  A    between atoms: _337  and  _339
REMARK  136  A    between atoms: _339  and  _340
REMARK  137  A    between atoms: _342  and  _344
REMARK  138  A    between atoms: _344  and  _345
REMARK  139  A    between atoms: _344  and  _347
REMARK  140  A    between atoms: _350  and  _352
REMARK  141  A    between atoms: _352  and  _353
REMARK  142  A    between atoms: _352  and  _355
REMARK  143  A    between atoms: _355  and  _356
REMARK  144  A    between atoms: _359  and  _361
REMARK  145  A    between atoms: _361  and  _362
REMARK  146  A    between atoms: _364  and  _366
REMARK  147  A    between atoms: _366  and  _367
REMARK  148  A    between atoms: _366  and  _369
REMARK  149  A    between atoms: _369  and  _370
REMARK  150  A    between atoms: _373  and  _375
REMARK  151  A    between atoms: _375  and  _376
REMARK  152  A    between atoms: _375  and  _378
REMARK  153  A    between atoms: _378  and  _379
REMARK  154  A    between atoms: _379  and  _380
REMARK  155  A    between atoms: _385  and  _387
REMARK  156  A    between atoms: _387  and  _388
REMARK  157  A    between atoms: _390  and  _392
REMARK  158  A    between atoms: _392  and  _393
REMARK  159  A    between atoms: _392  and  _395
REMARK  160  A    between atoms: _395  and  _396
REMARK  161  A    between atoms: _402  and  _404
REMARK  162  A    between atoms: _404  and  _405
REMARK  163  A    between atoms: _407  and  _409
REMARK  164  A    between atoms: _409  and  _410
REMARK  165  A    between atoms: _409  and  _412
REMARK  166  A    between atoms: _412  and  _413
REMARK  167  A    between atoms: _416  and  _418
REMARK  168  A    between atoms: _418  and  _419
REMARK  169  A    between atoms: _418  and  _421
REMARK  170  A    between atoms: _421  and  _422
REMARK  171  A    between atoms: _424  and  _426
REMARK  172  A    between atoms: _426  and  _427
REMARK  173  A    between atoms: _426  and  _429
REMARK  174  A    between atoms: _429  and  _430
REMARK  175  A    between atoms: _430  and  _431
REMARK  176  A    between atoms: _436  and  _438
REMARK  177  A    between atoms: _438  and  _439
REMARK  178  A    between atoms: _438  and  _441
REMARK  179  A    between atoms: _441  and  _442
REMARK  180  A    between atoms: _445  and  _447
REMARK  181  A    between atoms: _447  and  _448
REMARK  182  A    between atoms: _447  and  _450
REMARK  183  A    between atoms: _450  and  _451
REMARK  184  A    between atoms: _453  and  _455
REMARK  185  A    between atoms: _455  and  _456
REMARK  186  A    between atoms: _458  and  _460
REMARK  187  A    between atoms: _460  and  _461
REMARK  188  A    between atoms: _460  and  _463
REMARK  189  A    between atoms: _463  and  _464
REMARK  190  A    between atoms: _466  and  _468
REMARK  191  A    between atoms: _468  and  _469
REMARK  192  A    between atoms: _472  and  _474
REMARK  193  A    between atoms: _474  and  _475
REMARK  194  A    between atoms: _474  and  _477
REMARK  195  A    between atoms: _477  and  _478
REMARK  196  A    between atoms: _481  and  _483
REMARK  197  A    between atoms: _483  and  _484
REMARK  198  A    between atoms: _483  and  _486
REMARK  199  A    between atoms: _489  and  _491
REMARK  200  A    between atoms: _491  and  _492
REMARK  201  A    between atoms: _491  and  _494
REMARK  202  A    between atoms: _494  and  _495
REMARK  203  A    between atoms: _495  and  _496
REMARK  204  A    between atoms: _496  and  _497
REMARK  205  A    between atoms: _497  and  _498
REMARK  206  A    between atoms: _502  and  _504
REMARK  207  A    between atoms: _504  and  _505
REMARK  208  A    between atoms: _504  and  _507
REMARK  209  A    between atoms: _511  and  _512
REMARK  210  A    between atoms: _517  and  _519
REMARK  211  A    between atoms: _519  and  _520
REMARK  212  A    between atoms: _519  and  _522
REMARK  213  A    between atoms: _522  and  _523
REMARK  214  A    between atoms: _523  and  _524
REMARK  215  A    between atoms: _529  and  _531
REMARK  216  A    between atoms: _531  and  _532
REMARK  217  A    between atoms: _531  and  _534
REMARK  218  A    between atoms: _534  and  _535
REMARK  219  A    between atoms: _538  and  _540
REMARK  220  A    between atoms: _540  and  _541
REMARK  221  A    between atoms: _540  and  _543
REMARK  222  A    between atoms: _543  and  _544
REMARK                            x       y       z     vdW  Elec       q    Type
REMARK                         _______ _______ _______ _____ _____    ______ ____
ROOT
ATOM      1  CA  ALA A   5      46.482  35.780   8.480  0.00  0.00    +0.149 C 
ATOM      2  CB  ALA A   5      45.076  35.309   8.125  0.00  0.00    +0.031 C 
ENDROOT
BRANCH   1   5
ATOM      3  C   SER A   4      48.537  34.841   9.368  0.00  0.00    +0.243 C 
ATOM      4  O   SER A   4      49.119  35.922   9.282  0.00  0.00    -0.273 OA
ATOM      5  N   ALA A   5      47.268  34.670   9.005  0.00  0.00    -0.297 N 
ATOM      6  H   ALA A   5      46.831  33.731   9.097  0.00  0.00    +0.150 HD
BRANCH   3   7
ATOM      7  CA  SER A   4      49.265  33.620   9.902  0.00  0.00    +0.178 C 
BRANCH   7  10
ATOM      8  C   GLY A   3      47.780  33.330  11.805  0.00  0.00    +0.243 C 
ATOM      9  O   GLY A   3      47.796  34.535  12.058  0.00  0.00    -0.273 OA
ATOM     10  N   SER A   4      48.444  32.797  10.783  0.00  0.00    -0.295 N 
ATOM     11  H   SER A   4      48.376  31.774  10.609  0.00  0.00    +0.150 HD
BRANCH   8  12
ATOM     12  CA  GLY A   3      46.979  32.376  12.666  0.00  0.00    +0.176 C 
BRANCH  12  15
ATOM     13  C   SER A   2      44.599  32.058  12.495  0.00  0.00    +0.243 C 
ATOM     14  O   SER A   2      44.401  32.780  13.475  0.00  0.00    -0.273 OA
ATOM     15  N   GLY A   3      45.813  31.809  12.015  0.00  0.00    -0.295 N 
ATOM     16  H   GLY A   3      45.927  31.208  11.174  0.00  0.00    +0.150 HD
BRANCH  13  17
ATOM     17  CA  SER A   2      43.432  31.411  11.761  0.00  0.00    +0.178 C 
BRANCH  17  19
ATOM     18  C   ILE A   1      42.223  29.404  12.433  0.00  0.00    +0.238 C 
ATOM     19  N   SER A   2      42.656  30.627  12.714  0.00  0.00    -0.295 N 
ATOM     20  H   SER A   2      42.435  31.039  13.643  0.00  0.00    +0.150 HD
ATOM     21  O   ILE A   1      42.432  28.850  11.355  0.00  0.00    -0.274 OA
BRANCH  18  22
ATOM     22  CA  ILE A   1      41.434  28.700  13.532  0.00  0.00    +0.145 C 
BRANCH  22  23
ATOM     23  N   ILE A   1      40.322  27.979  12.931  0.00  0.00    -0.238 NA
ATOM     24  H   ILE A   1      40.532  27.137  12.357  0.00  0.00    +0.142 HD
ENDBRANCH  22  23
BRANCH  22  25
ATOM     25  CB  ILE A   1      42.385  27.737  14.282  0.00  0.00    +0.025 C 
ATOM     26  CG2 ILE A   1      43.664  28.468  14.694  0.00  0.00    +0.002 C 
BRANCH  25  27
ATOM     27  CG1 ILE A   1      41.678  27.160  15.509  0.00  0.00    +0.002 C 
ATOM     28  CD1 ILE A   1      42.458  26.054  16.199  0.00  0.00    +0.000 C 
ENDBRANCH  25  27
ENDBRANCH  22  25
ENDBRANCH  18  22
ENDBRANCH  17  19
BRANCH  17  29
ATOM     29  CB  SER A   2      42.557  32.497  11.126  0.00  0.00    +0.166 C 
BRANCH  29  30
ATOM     30  OG  SER A   2      43.294  33.259  10.185  0.00  0.00    -0.380 OA
ATOM     31  H   SER A   2      43.629  32.663   9.469  0.00  0.00    +0.211 HD
ENDBRANCH  29  30
ENDBRANCH  17  29
ENDBRANCH  13  17
ENDBRANCH  12  15
ENDBRANCH   8  12
ENDBRANCH   7  10
BRANCH   7  32
ATOM     32  CB  SER A   4      49.792  32.786   8.732  0.00  0.00    +0.166 C 
BRANCH  32  33
ATOM     33  OG  SER A   4      50.730  31.823   9.184  0.00  0.00    -0.380 OA
ATOM     34  H   SER A   4      50.293  31.220   9.836  0.00  0.00    +0.211 HD
ENDBRANCH  32  33
ENDBRANCH   7  32
ENDBRANCH   3   7
ENDBRANCH   1   5
BRANCH   1  35
ATOM     35  C   ALA A   5      46.421  36.894   9.519  0.00  0.00    +0.241 C 
ATOM     36  N   ILE A   6      46.298  36.508  10.784  0.00  0.00    -0.297 N 
ATOM     37  H   ILE A   6      46.241  35.492  10.998  0.00  0.00    +0.150 HD
ATOM     38  O   ALA A   5      46.485  38.075   9.181  0.00  0.00    -0.273 OA
BRANCH  36  39
ATOM     39  CA  ILE A   6      46.240  37.466  11.883  0.00  0.00    +0.149 C 
BRANCH  39  40
ATOM     40  C   ILE A   6      47.617  38.092  12.077  0.00  0.00    +0.241 C 
ATOM     41  O   ILE A   6      47.755  39.314  12.170  0.00  0.00    -0.273 OA
ATOM     42  N   VAL A   7      48.629  37.232  12.138  0.00  0.00    -0.297 N 
ATOM     43  H   VAL A   7      48.428  36.217  12.034  0.00  0.00    +0.150 HD
BRANCH  42  44
ATOM     44  CA  VAL A   7      50.007  37.655  12.344  0.00  0.00    +0.149 C 
BRANCH  44  45
ATOM     45  C   VAL A   7      50.524  38.559  11.225  0.00  0.00    +0.241 C 
ATOM     46  O   VAL A   7      51.293  39.484  11.487  0.00  0.00    -0.273 OA
ATOM     47  N   LYS A   8      50.106  38.299   9.988  0.00  0.00    -0.298 N 
ATOM     48  H   LYS A   8      49.465  37.497   9.821  0.00  0.00    +0.150 HD
BRANCH  47  49
ATOM     49  CA  LYS A   8      50.536  39.126   8.862  0.00  0.00    +0.137 C 
BRANCH  49  50
ATOM     50  C   LYS A   8      50.108  40.570   9.079  0.00  0.00    +0.227 C 
ATOM     51  O   LYS A   8      50.822  41.500   8.704  0.00  0.00    -0.286 OA
ENDBRANCH  49  50
BRANCH  49  52
ATOM     52  CB  LYS A   8      49.927  38.634   7.548  0.00  0.00    +0.028 C 
BRANCH  52  53
ATOM     53  CG  LYS A   8      50.461  37.310   7.047  0.00  0.00    -0.000 C 
BRANCH  53  54
ATOM     54  CD  LYS A   8      49.937  37.031   5.643  0.00  0.00    -0.024 C 
BRANCH  54  55
ATOM     55  CE  LYS A   8      50.309  35.637   5.176  0.00  0.00    -0.086 C 
BRANCH  55  56
ATOM     56  NZ  LYS A   8      51.778  35.409   5.250  0.00  0.00    +0.380 N 
ATOM     57  HZ1 LYS A   8      52.096  35.522   6.234  0.00  0.00    -0.089 HD
ATOM     58  HZ2 LYS A   8      51.995  34.446   4.923  0.00  0.00    -0.089 HD
ATOM     59  HZ3 LYS A   8      52.266  36.100   4.645  0.00  0.00    -0.089 HD
ENDBRANCH  55  56
ENDBRANCH  54  55
ENDBRANCH  53  54
ENDBRANCH  52  53
ENDBRANCH  49  52
ENDBRANCH  47  49
ENDBRANCH  44  45
BRANCH  44  60
ATOM     60  CB  VAL A   7      50.933  36.422  12.498  0.00  0.00    +0.027 C 
ATOM     61  CG2 VAL A   7      50.461  35.582  13.681  0.00  0.00    +0.002 C 
ATOM     62  CG1 VAL A   7      52.379  36.859  12.711  0.00  0.00    +0.002 C 
ENDBRANCH  44  60
ENDBRANCH  42  44
ENDBRANCH  39  40
BRANCH  39  63
ATOM     63  CB  ILE A   6      45.845  36.777  13.212  0.00  0.00    +0.027 C 
ATOM     64  CG2 ILE A   6      45.903  37.781  14.351  0.00  0.00    +0.002 C 
BRANCH  63  65
ATOM     65  CG1 ILE A   6      44.453  36.153  13.099  0.00  0.00    +0.002 C 
ATOM     66  CD1 ILE A   6      43.323  37.159  13.002  0.00  0.00    +0.000 C 
ENDBRANCH  63  65
ENDBRANCH  39  63
ENDBRANCH  36  39
ENDBRANCH   1  35
TORSDOF 30
REMARK  Name = ../refined-set-2016/2clh/2clh_pocket.pdb
REMARK  222 active torsions:
REMARK  status: ('A' for Active; 'I' for Inactive)
REMARK    1  A    between atoms: _1  and  _3
REMARK    2  A    between atoms: _3  and  _4
REMARK    3  A    between atoms: _3  and  _6
REMARK    4  A    between atoms: _10  and  _11
REMARK    5  A    between atoms: _16  and  _18
REMARK    6  A    between atoms: _18  and  _19
REMARK    7  A    between atoms: _18  and  _21
REMARK    8  A    between atoms: _21  and  _22
REMARK    9  A    between atoms: _28  and  _30
REMARK   10  A    between atoms: _30  and  _31
REMARK   11  A    between atoms: _30  and  _33
REMARK   12  A    between atoms: _36  and  _38
REMARK   13  A    between atoms: _38  and  _39
REMARK   14  A    between atoms: _38  and  _41
REMARK   15  A    between atoms: _41  and  _42
REMARK   16  A    between atoms: _45  and  _47
REMARK   17  A    between atoms: _47  and  _48
REMARK   18  A    between atoms: _47  and  _50
REMARK   19  A    between atoms: _50  and  _51
REMARK   20  A    between atoms: _54  and  _56
REMARK   21  A    between atoms: _56  and  _57
REMARK   22  A    between atoms: _56  and  _59
REMARK   23  A    between atoms: _59  and  _60
REMARK   24  A    between atoms: _60  and  _61
REMARK   25  A    between atoms: _64  and  _66
REMARK   26  A    between atoms: _66  and  _67
REMARK   27  A    between atoms: _66  and  _69
REMARK   28  A    between atoms: _69  and  _70
REMARK   29  A    between atoms: _73  and  _75
REMARK   30  A    between atoms: _75  and  _76
REMARK   31  A    between atoms: _79  and  _80
REMARK   32  A    between atoms: _85  and  _87
REMARK   33  A    between atoms: _87  and  _88
REMARK   34  A    between atoms: _87  and  _90
REMARK   35  A    between atoms: _90  and  _91
REMARK   36  A    between atoms: _94  and  _96
REMARK   37  A    between atoms: _96  and  _97
REMARK   38  A    between atoms: _100  and  _102
REMARK   39  A    between atoms: _102  and  _103
REMARK   40  A    between atoms: _102  and  _105
REMARK   41  A    between atoms: _105  and  _106
REMARK   42  A    between atoms: _109  and  _111
REMARK   43  A    between atoms: _111  and  _112
REMARK   44  A    between atoms: _114  and  _116
REMARK   45  A    between atoms: _116  and  _117
REMARK   46  A    between atoms: _116  and  _119
REMARK   47  A    between atoms: _119  and  _120
REMARK   48  A    between atoms: _123  and  _125
REMARK   49  A    between atoms: _125  and  _126
REMARK   50  A    between atoms: _125  and  _128
REMARK   51  A    between atoms: _128  and  _129
REMARK   52  A    between atoms: _132  and  _134
REMARK   53  A    between atoms: _134  and  _135
REMARK   54  A    between atoms: _134  and  _137
REMARK   55  A    between atoms: _137  and  _138
REMARK   56  A    between atoms: _143  and  _145
REMARK   57  A    between atoms: _145  and  _146
REMARK   58  A    between atoms: _148  and  _150
REMARK   59  A    between atoms: _150  and  _151
REMARK   60  A    between atoms: _150  and  _153
REMARK   61  A    between atoms: _153  and  _154
REMARK   62  A    between atoms: _157  and  _159
REMARK   63  A    between atoms: _159  and  _160
REMARK   64  A    between atoms: _159  and  _162
REMARK   65  A    between atoms: _162  and  _163
REMARK   66  A    between atoms: _166  and  _168
REMARK   67  A    between atoms: _168  and  _169
REMARK   68  A    between atoms: _168  and  _171
REMARK   69  A    between atoms: _171  and  _172
REMARK   70  A    between atoms: _172  and  _173
REMARK   71  A    between atoms: _175  and  _177
REMARK   72  A    between atoms: _177  and  _178
REMARK   73  A    between atoms: _177  and  _180
REMARK   74  A    between atoms: _180  and  _181
REMARK   75  A    between atoms: _186  and  _187
REMARK   76  A    between atoms: _189  and  _191
REMARK   77  A    between atoms: _191  and  _192
REMARK   78  A    between atoms: _191  and  _194
REMARK   79  A    between atoms: _194  and  _195
REMARK   80  A    between atoms: _198  and  _200
REMARK   81  A    between atoms: _200  and  _201
REMARK   82  A    between atoms: _200  and  _203
REMARK   83  A    between atoms: _206  and  _208
REMARK   84  A    between atoms: _208  and  _209
REMARK   85  A    between atoms: _212  and  _214
REMARK   86  A    between atoms: _214  and  _215
REMARK   87  A    between atoms: _214  and  _217
REMARK   88  A    between atoms: _217  and  _218
REMARK   89  A    between atoms: _221  and  _223
REMARK   90  A    between atoms: _223  and  _224
REMARK   91  A    between atoms: _223  and  _226
REMARK   92  A    between atoms: _229  and  _231
REMARK   93  A    between atoms: _231  and  _232
REMARK   94  A    between atoms: _231  and  _234
REMARK   95  A    between atoms: _234  and  _235
REMARK   96  A    between atoms: _238  and  _240
REMARK   97  A    between atoms: _240  and  _241
REMARK   98  A    between atoms: _240  and  _243
REMARK   99  A    between atoms: _243  and  _244
REMARK  100  A    between atoms: _250  and  _252
REMARK  101  A    between atoms: _252  and  _253
REMARK  102  A    between atoms: _252  and  _255
REMARK  103  A    between atoms: _255  and  _256
REMARK  104  A    between atoms: _259  and  _261
REMARK  105  A    between atoms: _261  and  _262
REMARK  106  A    between atoms: _261  and  _264
REMARK  107  A    between atoms: _266  and  _268
REMARK  108  A    between atoms: _268  and  _269
REMARK  109  A    between atoms: _268  and  _271
REMARK  110  A    between atoms: _271  and  _272
REMARK  111  A    between atoms: _277  and  _278
REMARK  112  A    between atoms: _280  and  _282
REMARK  113  A    between atoms: _282  and  _283
REMARK  114  A    between atoms: _282  and  _285
REMARK  115  A    between atoms: _285  and  _286
REMARK  116  A    between atoms: _291  and  _292
REMARK  117  A    between atoms: _294  and  _296
REMARK  118  A    between atoms: _296  and  _297
REMARK  119  A    between atoms: _296  and  _299
REMARK  120  A    between atoms: _299  and  _300
REMARK  121  A    between atoms: _303  and  _305
REMARK  122  A    between atoms: _305  and  _306
REMARK  123  A    between atoms: _305  and  _308
REMARK  124  A    between atoms: _308  and  _309
REMARK  125  A    between atoms: _312  and  _314
REMARK  126  A    between atoms: _314  and  _315
REMARK  127  A    between atoms: _314  and  _317
REMARK  128  A    between atoms: _317  and  _318
REMARK  129  A    between atoms: _320  and  _322
REMARK  130  A    between atoms: _322  and  _323
REMARK  131  A    between atoms: _322  and  _325
REMARK  132  A    between atoms: _325  and  _326
REMARK  133  A    between atoms: _326  and  _327
REMARK  134  A    between atoms: _327  and  _328
REMARK  135  A    between atoms: _337  and  _339
REMARK  136  A    between atoms: _339  and  _340
REMARK  137  A    between atoms: _342  and  _344
REMARK  138  A    between atoms: _344  and  _345
REMARK  139  A    between atoms: _344  and  _347
REMARK  140  A    between atoms: _350  and  _352
REMARK  141  A    between atoms: _352  and  _353
REMARK  142  A    between atoms: _352  and  _355
REMARK  143  A    between atoms: _355  and  _356
REMARK  144  A    between atoms: _359  and  _361
REMARK  145  A    between atoms: _361  and  _362
REMARK  146  A    between atoms: _364  and  _366
REMARK  147  A    between atoms: _366  and  _367
REMARK  148  A    between atoms: _366  and  _369
REMARK  149  A    between atoms: _369  and  _370
REMARK  150  A    between atoms: _373  and  _375
REMARK  151  A    between atoms: _375  and  _376
REMARK  152  A    between atoms: _375  and  _378
REMARK  153  A    between atoms: _378  and  _379
REMARK  154  A    between atoms: _379  and  _380
REMARK  155  A    between atoms: _385  and  _387
REMARK  156  A    between atoms: _387  and  _388
REMARK  157  A    between atoms: _390  and  _392
REMARK  158  A    between atoms: _392  and  _393
REMARK  159  A    between atoms: _392  and  _395
REMARK  160  A    between atoms: _395  and  _396
REMARK  161  A    between atoms: _402  and  _404
REMARK  162  A    between atoms: _404  and  _405
REMARK  163  A    between atoms: _407  and  _409
REMARK  164  A    between atoms: _409  and  _410
REMARK  165  A    between atoms: _409  and  _412
REMARK  166  A    between atoms: _412  and  _413
REMARK  167  A    between atoms: _416  and  _418
REMARK  168  A    between atoms: _418  and  _419
REMARK  169  A    between atoms: _418  and  _421
REMARK  170  A    between atoms: _421  and  _422
REMARK  171  A    between atoms: _424  and  _426
REMARK  172  A    between atoms: _426  and  _427
REMARK  173  A    between atoms: _426  and  _429
REMARK  174  A    between atoms: _429  and  _430
REMARK  175  A    between atoms: _430  and  _431
REMARK  176  A    between atoms: _436  and  _438
REMARK  177  A    between atoms: _438  and  _439
REMARK  178  A    between atoms: _438  and  _441
REMARK  179  A    between atoms: _441  and  _442
REMARK  180  A    between atoms: _445  and  _447
REMARK  181  A    between atoms: _447  and  _448
REMARK  182  A    between atoms: _447  and  _450
REMARK  183  A    between atoms: _450  and  _451
REMARK  184  A    between atoms: _453  and  _455
REMARK  185  A    between atoms: _455  and  _456
REMARK  186  A    between atoms: _458  and  _460
REMARK  187  A    between atoms: _460  and  _461
REMARK  188  A    between atoms: _460  and  _463
REMARK  189  A    between atoms: _463  and  _464
REMARK  190  A    between atoms: _466  and  _468
REMARK  191  A    between atoms: _468  and  _469
REMARK  192  A    between atoms: _472  and  _474
REMARK  193  A    between atoms: _474  and  _475
REMARK  194  A    between atoms: _474  and  _477
REMARK  195  A    between atoms: _477  and  _478
REMARK  196  A    between atoms: _481  and  _483
REMARK  197  A    between atoms: _483  and  _484
REMARK  198  A    between atoms: _483  and  _486
REMARK  199  A    between atoms: _489  and  _491
REMARK  200  A    between atoms: _491  and  _492
REMARK  201  A    between atoms: _491  and  _494
REMARK  202  A    between atoms: _494  and  _495
REMARK  203  A    between atoms: _495  and  _496
REMARK  204  A    between atoms: _496  and  _497
REMARK  205  A    between atoms: _497  and  _498
REMARK  206  A    between atoms: _502  and  _504
REMARK  207  A    between atoms: _504  and  _505
REMARK  208  A    between atoms: _504  and  _507
REMARK  209  A    between atoms: _511  and  _512
REMARK  210  A    between atoms: _517  and  _519
REMARK  211  A    between atoms: _519  and  _520
REMARK  212  A    between atoms: _519  and  _522
REMARK  213  A    between atoms: _522  and  _523
REMARK  214  A    between atoms: _523  and  _524
REMARK  215  A    between atoms: _529  and  _531
REMARK  216  A    between atoms: _531  and  _532
REMARK  217  A    between atoms: _531  and  _534
REMARK  218  A    between atoms: _534  and  _535
REMARK  219  A    between atoms: _538  and  _540
REMARK  220  A    between atoms: _540  and  _541
REMARK  221  A    between atoms: _540  and  _543
REMARK  222  A    between atoms: _543  and  _544
REMARK                            x       y       z     vdW  Elec       q    Type
REMARK                         _______ _______ _______ _____ _____    ______ ____
ROOT
ATOM      1  CA  GLN A   3      51.538  14.294  13.818  0.00  0.00    +0.149 C 
ENDROOT
BRANCH   1   3
ATOM      2  C   PRO A   2      53.589  15.608  13.853  0.00  0.00    +0.241 C 
ATOM      3  N   GLN A   3      52.326  15.455  14.231  0.00  0.00    -0.297 N 
ATOM      4  H   GLN A   3      51.886  16.178  14.835  0.00  0.00    +0.150 HD
ATOM      5  O   PRO A   2      54.166  14.808  13.111  0.00  0.00    -0.273 OA
BRANCH   2   9
ATOM      6  C   VAL A   1      56.118  15.503  15.272  0.00  0.00    +0.241 C 
ATOM      7  O   VAL A   1      55.300  14.826  15.889  0.00  0.00    -0.273 OA
ATOM      8  N   PRO A   2      55.748  16.540  14.510  0.00  0.00    -0.272 N 
ATOM      9  CA  PRO A   2      54.320  16.850  14.371  0.00  0.00    +0.152 C 
ATOM     10  CB  PRO A   2      54.319  17.983  13.358  0.00  0.00    +0.031 C 
ATOM     11  CG  PRO A   2      55.593  18.716  13.692  0.00  0.00    +0.024 C 
ATOM     12  CD  PRO A   2      56.582  17.578  13.876  0.00  0.00    +0.094 C 
BRANCH   6  13
ATOM     13  CA  VAL A   1      57.605  15.206  15.378  0.00  0.00    +0.145 C 
BRANCH  13  14
ATOM     14  CB  VAL A   1      58.021  14.429  14.110  0.00  0.00    +0.025 C 
ATOM     15  CG2 VAL A   1      59.520  14.207  14.103  0.00  0.00    +0.002 C 
ATOM     16  CG1 VAL A   1      57.275  13.096  14.048  0.00  0.00    +0.002 C 
ENDBRANCH  13  14
BRANCH  13  17
ATOM     17  N   VAL A   1      57.832  14.429  16.584  0.00  0.00    -0.238 NA
ATOM     18  H   VAL A   1      57.288  13.555  16.729  0.00  0.00    +0.142 HD
ENDBRANCH  13  17
ENDBRANCH   6  13
ENDBRANCH   2   9
ENDBRANCH   1   3
BRANCH   1  19
ATOM     19  C   GLN A   3      51.622  14.020  12.323  0.00  0.00    +0.241 C 
ATOM     20  O   GLN A   3      51.648  12.866  11.894  0.00  0.00    -0.273 OA
ATOM     21  N   ILE A   4      51.658  15.086  11.533  0.00  0.00    -0.297 N 
ATOM     22  H   ILE A   4      51.654  16.035  11.959  0.00  0.00    +0.150 HD
BRANCH  21  23
ATOM     23  CA  ILE A   4      51.703  14.958  10.080  0.00  0.00    +0.149 C 
BRANCH  23  24
ATOM     24  C   ILE A   4      52.908  14.173   9.551  0.00  0.00    +0.241 C 
ATOM     25  N   LEU A   5      54.000  14.143  10.312  0.00  0.00    -0.298 N 
ATOM     26  H   LEU A   5      53.993  14.630  11.231  0.00  0.00    +0.150 HD
ATOM     27  O   ILE A   4      52.844  13.596   8.466  0.00  0.00    -0.273 OA
BRANCH  25  28
ATOM     28  CA  LEU A   5      55.209  13.440   9.883  0.00  0.00    +0.137 C 
BRANCH  28  29
ATOM     29  C   LEU A   5      55.312  11.985  10.323  0.00  0.00    +0.227 C 
ATOM     30  O   LEU A   5      56.218  11.275   9.894  0.00  0.00    -0.286 OA
ENDBRANCH  28  29
BRANCH  28  31
ATOM     31  CB  LEU A   5      56.459  14.190  10.359  0.00  0.00    +0.028 C 
BRANCH  31  32
ATOM     32  CG  LEU A   5      56.942  15.370   9.511  0.00  0.00    +0.002 C 
ATOM     33  CD2 LEU A   5      58.019  16.130  10.261  0.00  0.00    +0.000 C 
ATOM     34  CD1 LEU A   5      57.480  14.863   8.175  0.00  0.00    +0.000 C 
ENDBRANCH  31  32
ENDBRANCH  28  31
ENDBRANCH  25  28
ENDBRANCH  23  24
BRANCH  23  35
ATOM     35  CB  ILE A   4      51.677  16.358   9.409  0.00  0.00    +0.027 C 
ATOM     36  CG2 ILE A   4      52.953  17.121   9.716  0.00  0.00    +0.002 C 
BRANCH  35  37
ATOM     37  CG1 ILE A   4      51.489  16.213   7.899  0.00  0.00    +0.002 C 
ATOM     38  CD1 ILE A   4      50.128  15.677   7.512  0.00  0.00    +0.000 C 
ENDBRANCH  35  37
ENDBRANCH  23  35
ENDBRANCH  21  23
ENDBRANCH   1  19
BRANCH   1  39
ATOM     39  CB  GLN A   3      50.072  14.490  14.201  0.00  0.00    +0.039 C 
BRANCH  39  40
ATOM     40  CG  GLN A   3      49.239  13.224  14.107  0.00  0.00    +0.087 C 
BRANCH  40  41
ATOM     41  CD  GLN A   3      49.636  12.202  15.149  0.00  0.00    +0.219 C 
ATOM     42  OE1 GLN A   3      49.663  12.499  16.341  0.00  0.00    -0.275 OA
ATOM     43  NE2 GLN A   3      49.938  10.985  14.705  0.00  0.00    -0.329 N 
ATOM     44 HE21 GLN A   3      50.211  10.239  15.377  0.00  0.00    +0.145 HD
ATOM     45 HE22 GLN A   3      49.901  10.779  13.686  0.00  0.00    +0.145 HD
ENDBRANCH  40  41
ENDBRANCH  39  40
ENDBRANCH   1  39
TORSDOF 17
REMARK  Name = ../refined-set-2016/2clh/2clh_pocket.pdb
REMARK  222 active torsions:
REMARK  status: ('A' for Active; 'I' for Inactive)
REMARK    1  A    between atoms: _1  and  _3
REMARK    2  A    between atoms: _3  and  _4
REMARK    3  A    between atoms: _3  and  _6
REMARK    4  A    between atoms: _10  and  _11
REMARK    5  A    between atoms: _16  and  _18
REMARK    6  A    between atoms: _18  and  _19
REMARK    7  A    between atoms: _18  and  _21
REMARK    8  A    between atoms: _21  and  _22
REMARK    9  A    between atoms: _28  and  _30
REMARK   10  A    between atoms: _30  and  _31
REMARK   11  A    between atoms: _30  and  _33
REMARK   12  A    between atoms: _36  and  _38
REMARK   13  A    between atoms: _38  and  _39
REMARK   14  A    between atoms: _38  and  _41
REMARK   15  A    between atoms: _41  and  _42
REMARK   16  A    between atoms: _45  and  _47
REMARK   17  A    between atoms: _47  and  _48
REMARK   18  A    between atoms: _47  and  _50
REMARK   19  A    between atoms: _50  and  _51
REMARK   20  A    between atoms: _54  and  _56
REMARK   21  A    between atoms: _56  and  _57
REMARK   22  A    between atoms: _56  and  _59
REMARK   23  A    between atoms: _59  and  _60
REMARK   24  A    between atoms: _60  and  _61
REMARK   25  A    between atoms: _64  and  _66
REMARK   26  A    between atoms: _66  and  _67
REMARK   27  A    between atoms: _66  and  _69
REMARK   28  A    between atoms: _69  and  _70
REMARK   29  A    between atoms: _73  and  _75
REMARK   30  A    between atoms: _75  and  _76
REMARK   31  A    between atoms: _79  and  _80
REMARK   32  A    between atoms: _85  and  _87
REMARK   33  A    between atoms: _87  and  _88
REMARK   34  A    between atoms: _87  and  _90
REMARK   35  A    between atoms: _90  and  _91
REMARK   36  A    between atoms: _94  and  _96
REMARK   37  A    between atoms: _96  and  _97
REMARK   38  A    between atoms: _100  and  _102
REMARK   39  A    between atoms: _102  and  _103
REMARK   40  A    between atoms: _102  and  _105
REMARK   41  A    between atoms: _105  and  _106
REMARK   42  A    between atoms: _109  and  _111
REMARK   43  A    between atoms: _111  and  _112
REMARK   44  A    between atoms: _114  and  _116
REMARK   45  A    between atoms: _116  and  _117
REMARK   46  A    between atoms: _116  and  _119
REMARK   47  A    between atoms: _119  and  _120
REMARK   48  A    between atoms: _123  and  _125
REMARK   49  A    between atoms: _125  and  _126
REMARK   50  A    between atoms: _125  and  _128
REMARK   51  A    between atoms: _128  and  _129
REMARK   52  A    between atoms: _132  and  _134
REMARK   53  A    between atoms: _134  and  _135
REMARK   54  A    between atoms: _134  and  _137
REMARK   55  A    between atoms: _137  and  _138
REMARK   56  A    between atoms: _143  and  _145
REMARK   57  A    between atoms: _145  and  _146
REMARK   58  A    between atoms: _148  and  _150
REMARK   59  A    between atoms: _150  and  _151
REMARK   60  A    between atoms: _150  and  _153
REMARK   61  A    between atoms: _153  and  _154
REMARK   62  A    between atoms: _157  and  _159
REMARK   63  A    between atoms: _159  and  _160
REMARK   64  A    between atoms: _159  and  _162
REMARK   65  A    between atoms: _162  and  _163
REMARK   66  A    between atoms: _166  and  _168
REMARK   67  A    between atoms: _168  and  _169
REMARK   68  A    between atoms: _168  and  _171
REMARK   69  A    between atoms: _171  and  _172
REMARK   70  A    between atoms: _172  and  _173
REMARK   71  A    between atoms: _175  and  _177
REMARK   72  A    between atoms: _177  and  _178
REMARK   73  A    between atoms: _177  and  _180
REMARK   74  A    between atoms: _180  and  _181
REMARK   75  A    between atoms: _186  and  _187
REMARK   76  A    between atoms: _189  and  _191
REMARK   77  A    between atoms: _191  and  _192
REMARK   78  A    between atoms: _191  and  _194
REMARK   79  A    between atoms: _194  and  _195
REMARK   80  A    between atoms: _198  and  _200
REMARK   81  A    between atoms: _200  and  _201
REMARK   82  A    between atoms: _200  and  _203
REMARK   83  A    between atoms: _206  and  _208
REMARK   84  A    between atoms: _208  and  _209
REMARK   85  A    between atoms: _212  and  _214
REMARK   86  A    between atoms: _214  and  _215
REMARK   87  A    between atoms: _214  and  _217
REMARK   88  A    between atoms: _217  and  _218
REMARK   89  A    between atoms: _221  and  _223
REMARK   90  A    between atoms: _223  and  _224
REMARK   91  A    between atoms: _223  and  _226
REMARK   92  A    between atoms: _229  and  _231
REMARK   93  A    between atoms: _231  and  _232
REMARK   94  A    between atoms: _231  and  _234
REMARK   95  A    between atoms: _234  and  _235
REMARK   96  A    between atoms: _238  and  _240
REMARK   97  A    between atoms: _240  and  _241
REMARK   98  A    between atoms: _240  and  _243
REMARK   99  A    between atoms: _243  and  _244
REMARK  100  A    between atoms: _250  and  _252
REMARK  101  A    between atoms: _252  and  _253
REMARK  102  A    between atoms: _252  and  _255
REMARK  103  A    between atoms: _255  and  _256
REMARK  104  A    between atoms: _259  and  _261
REMARK  105  A    between atoms: _261  and  _262
REMARK  106  A    between atoms: _261  and  _264
REMARK  107  A    between atoms: _266  and  _268
REMARK  108  A    between atoms: _268  and  _269
REMARK  109  A    between atoms: _268  and  _271
REMARK  110  A    between atoms: _271  and  _272
REMARK  111  A    between atoms: _277  and  _278
REMARK  112  A    between atoms: _280  and  _282
REMARK  113  A    between atoms: _282  and  _283
REMARK  114  A    between atoms: _282  and  _285
REMARK  115  A    between atoms: _285  and  _286
REMARK  116  A    between atoms: _291  and  _292
REMARK  117  A    between atoms: _294  and  _296
REMARK  118  A    between atoms: _296  and  _297
REMARK  119  A    between atoms: _296  and  _299
REMARK  120  A    between atoms: _299  and  _300
REMARK  121  A    between atoms: _303  and  _305
REMARK  122  A    between atoms: _305  and  _306
REMARK  123  A    between atoms: _305  and  _308
REMARK  124  A    between atoms: _308  and  _309
REMARK  125  A    between atoms: _312  and  _314
REMARK  126  A    between atoms: _314  and  _315
REMARK  127  A    between atoms: _314  and  _317
REMARK  128  A    between atoms: _317  and  _318
REMARK  129  A    between atoms: _320  and  _322
REMARK  130  A    between atoms: _322  and  _323
REMARK  131  A    between atoms: _322  and  _325
REMARK  132  A    between atoms: _325  and  _326
REMARK  133  A    between atoms: _326  and  _327
REMARK  134  A    between atoms: _327  and  _328
REMARK  135  A    between atoms: _337  and  _339
REMARK  136  A    between atoms: _339  and  _340
REMARK  137  A    between atoms: _342  and  _344
REMARK  138  A    between atoms: _344  and  _345
REMARK  139  A    between atoms: _344  and  _347
REMARK  140  A    between atoms: _350  and  _352
REMARK  141  A    between atoms: _352  and  _353
REMARK  142  A    between atoms: _352  and  _355
REMARK  143  A    between atoms: _355  and  _356
REMARK  144  A    between atoms: _359  and  _361
REMARK  145  A    between atoms: _361  and  _362
REMARK  146  A    between atoms: _364  and  _366
REMARK  147  A    between atoms: _366  and  _367
REMARK  148  A    between atoms: _366  and  _369
REMARK  149  A    between atoms: _369  and  _370
REMARK  150  A    between atoms: _373  and  _375
REMARK  151  A    between atoms: _375  and  _376
REMARK  152  A    between atoms: _375  and  _378
REMARK  153  A    between atoms: _378  and  _379
REMARK  154  A    between atoms: _379  and  _380
REMARK  155  A    between atoms: _385  and  _387
REMARK  156  A    between atoms: _387  and  _388
REMARK  157  A    between atoms: _390  and  _392
REMARK  158  A    between atoms: _392  and  _393
REMARK  159  A    between atoms: _392  and  _395
REMARK  160  A    between atoms: _395  and  _396
REMARK  161  A    between atoms: _402  and  _404
REMARK  162  A    between atoms: _404  and  _405
REMARK  163  A    between atoms: _407  and  _409
REMARK  164  A    between atoms: _409  and  _410
REMARK  165  A    between atoms: _409  and  _412
REMARK  166  A    between atoms: _412  and  _413
REMARK  167  A    between atoms: _416  and  _418
REMARK  168  A    between atoms: _418  and  _419
REMARK  169  A    between atoms: _418  and  _421
REMARK  170  A    between atoms: _421  and  _422
REMARK  171  A    between atoms: _424  and  _426
REMARK  172  A    between atoms: _426  and  _427
REMARK  173  A    between atoms: _426  and  _429
REMARK  174  A    between atoms: _429  and  _430
REMARK  175  A    between atoms: _430  and  _431
REMARK  176  A    between atoms: _436  and  _438
REMARK  177  A    between atoms: _438  and  _439
REMARK  178  A    between atoms: _438  and  _441
REMARK  179  A    between atoms: _441  and  _442
REMARK  180  A    between atoms: _445  and  _447
REMARK  181  A    between atoms: _447  and  _448
REMARK  182  A    between atoms: _447  and  _450
REMARK  183  A    between atoms: _450  and  _451
REMARK  184  A    between atoms: _453  and  _455
REMARK  185  A    between atoms: _455  and  _456
REMARK  186  A    between atoms: _458  and  _460
REMARK  187  A    between atoms: _460  and  _461
REMARK  188  A    between atoms: _460  and  _463
REMARK  189  A    between atoms: _463  and  _464
REMARK  190  A    between atoms: _466  and  _468
REMARK  191  A    between atoms: _468  and  _469
REMARK  192  A    between atoms: _472  and  _474
REMARK  193  A    between atoms: _474  and  _475
REMARK  194  A    between atoms: _474  and  _477
REMARK  195  A    between atoms: _477  and  _478
REMARK  196  A    between atoms: _481  and  _483
REMARK  197  A    between atoms: _483  and  _484
REMARK  198  A    between atoms: _483  and  _486
REMARK  199  A    between atoms: _489  and  _491
REMARK  200  A    between atoms: _491  and  _492
REMARK  201  A    between atoms: _491  and  _494
REMARK  202  A    between atoms: _494  and  _495
REMARK  203  A    between atoms: _495  and  _496
REMARK  204  A    between atoms: _496  and  _497
REMARK  205  A    between atoms: _497  and  _498
REMARK  206  A    between atoms: _502  and  _504
REMARK  207  A    between atoms: _504  and  _505
REMARK  208  A    between atoms: _504  and  _507
REMARK  209  A    between atoms: _511  and  _512
REMARK  210  A    between atoms: _517  and  _519
REMARK  211  A    between atoms: _519  and  _520
REMARK  212  A    between atoms: _519  and  _522
REMARK  213  A    between atoms: _522  and  _523
REMARK  214  A    between atoms: _523  and  _524
REMARK  215  A    between atoms: _529  and  _531
REMARK  216  A    between atoms: _531  and  _532
REMARK  217  A    between atoms: _531  and  _534
REMARK  218  A    between atoms: _534  and  _535
REMARK  219  A    between atoms: _538  and  _540
REMARK  220  A    between atoms: _540  and  _541
REMARK  221  A    between atoms: _540  and  _543
REMARK  222  A    between atoms: _543  and  _544
REMARK                            x       y       z     vdW  Elec       q    Type
REMARK                         _______ _______ _______ _____ _____    ______ ____
ROOT
ATOM      1  O   HOH     1      41.893  27.787  21.725  0.00  0.00    +0.000 OA
ENDROOT
TORSDOF 0
REMARK  Name = ../refined-set-2016/2clh/2clh_pocket.pdb
REMARK  222 active torsions:
REMARK  status: ('A' for Active; 'I' for Inactive)
REMARK    1  A    between atoms: _1  and  _3
REMARK    2  A    between atoms: _3  and  _4
REMARK    3  A    between atoms: _3  and  _6
REMARK    4  A    between atoms: _10  and  _11
REMARK    5  A    between atoms: _16  and  _18
REMARK    6  A    between atoms: _18  and  _19
REMARK    7  A    between atoms: _18  and  _21
REMARK    8  A    between atoms: _21  and  _22
REMARK    9  A    between atoms: _28  and  _30
REMARK   10  A    between atoms: _30  and  _31
REMARK   11  A    between atoms: _30  and  _33
REMARK   12  A    between atoms: _36  and  _38
REMARK   13  A    between atoms: _38  and  _39
REMARK   14  A    between atoms: _38  and  _41
REMARK   15  A    between atoms: _41  and  _42
REMARK   16  A    between atoms: _45  and  _47
REMARK   17  A    between atoms: _47  and  _48
REMARK   18  A    between atoms: _47  and  _50
REMARK   19  A    between atoms: _50  and  _51
REMARK   20  A    between atoms: _54  and  _56
REMARK   21  A    between atoms: _56  and  _57
REMARK   22  A    between atoms: _56  and  _59
REMARK   23  A    between atoms: _59  and  _60
REMARK   24  A    between atoms: _60  and  _61
REMARK   25  A    between atoms: _64  and  _66
REMARK   26  A    between atoms: _66  and  _67
REMARK   27  A    between atoms: _66  and  _69
REMARK   28  A    between atoms: _69  and  _70
REMARK   29  A    between atoms: _73  and  _75
REMARK   30  A    between atoms: _75  and  _76
REMARK   31  A    between atoms: _79  and  _80
REMARK   32  A    between atoms: _85  and  _87
REMARK   33  A    between atoms: _87  and  _88
REMARK   34  A    between atoms: _87  and  _90
REMARK   35  A    between atoms: _90  and  _91
REMARK   36  A    between atoms: _94  and  _96
REMARK   37  A    between atoms: _96  and  _97
REMARK   38  A    between atoms: _100  and  _102
REMARK   39  A    between atoms: _102  and  _103
REMARK   40  A    between atoms: _102  and  _105
REMARK   41  A    between atoms: _105  and  _106
REMARK   42  A    between atoms: _109  and  _111
REMARK   43  A    between atoms: _111  and  _112
REMARK   44  A    between atoms: _114  and  _116
REMARK   45  A    between atoms: _116  and  _117
REMARK   46  A    between atoms: _116  and  _119
REMARK   47  A    between atoms: _119  and  _120
REMARK   48  A    between atoms: _123  and  _125
REMARK   49  A    between atoms: _125  and  _126
REMARK   50  A    between atoms: _125  and  _128
REMARK   51  A    between atoms: _128  and  _129
REMARK   52  A    between atoms: _132  and  _134
REMARK   53  A    between atoms: _134  and  _135
REMARK   54  A    between atoms: _134  and  _137
REMARK   55  A    between atoms: _137  and  _138
REMARK   56  A    between atoms: _143  and  _145
REMARK   57  A    between atoms: _145  and  _146
REMARK   58  A    between atoms: _148  and  _150
REMARK   59  A    between atoms: _150  and  _151
REMARK   60  A    between atoms: _150  and  _153
REMARK   61  A    between atoms: _153  and  _154
REMARK   62  A    between atoms: _157  and  _159
REMARK   63  A    between atoms: _159  and  _160
REMARK   64  A    between atoms: _159  and  _162
REMARK   65  A    between atoms: _162  and  _163
REMARK   66  A    between atoms: _166  and  _168
REMARK   67  A    between atoms: _168  and  _169
REMARK   68  A    between atoms: _168  and  _171
REMARK   69  A    between atoms: _171  and  _172
REMARK   70  A    between atoms: _172  and  _173
REMARK   71  A    between atoms: _175  and  _177
REMARK   72  A    between atoms: _177  and  _178
REMARK   73  A    between atoms: _177  and  _180
REMARK   74  A    between atoms: _180  and  _181
REMARK   75  A    between atoms: _186  and  _187
REMARK   76  A    between atoms: _189  and  _191
REMARK   77  A    between atoms: _191  and  _192
REMARK   78  A    between atoms: _191  and  _194
REMARK   79  A    between atoms: _194  and  _195
REMARK   80  A    between atoms: _198  and  _200
REMARK   81  A    between atoms: _200  and  _201
REMARK   82  A    between atoms: _200  and  _203
REMARK   83  A    between atoms: _206  and  _208
REMARK   84  A    between atoms: _208  and  _209
REMARK   85  A    between atoms: _212  and  _214
REMARK   86  A    between atoms: _214  and  _215
REMARK   87  A    between atoms: _214  and  _217
REMARK   88  A    between atoms: _217  and  _218
REMARK   89  A    between atoms: _221  and  _223
REMARK   90  A    between atoms: _223  and  _224
REMARK   91  A    between atoms: _223  and  _226
REMARK   92  A    between atoms: _229  and  _231
REMARK   93  A    between atoms: _231  and  _232
REMARK   94  A    between atoms: _231  and  _234
REMARK   95  A    between atoms: _234  and  _235
REMARK   96  A    between atoms: _238  and  _240
REMARK   97  A    between atoms: _240  and  _241
REMARK   98  A    between atoms: _240  and  _243
REMARK   99  A    between atoms: _243  and  _244
REMARK  100  A    between atoms: _250  and  _252
REMARK  101  A    between atoms: _252  and  _253
REMARK  102  A    between atoms: _252  and  _255
REMARK  103  A    between atoms: _255  and  _256
REMARK  104  A    between atoms: _259  and  _261
REMARK  105  A    between atoms: _261  and  _262
REMARK  106  A    between atoms: _261  and  _264
REMARK  107  A    between atoms: _266  and  _268
REMARK  108  A    between atoms: _268  and  _269
REMARK  109  A    between atoms: _268  and  _271
REMARK  110  A    between atoms: _271  and  _272
REMARK  111  A    between atoms: _277  and  _278
REMARK  112  A    between atoms: _280  and  _282
REMARK  113  A    between atoms: _282  and  _283
REMARK  114  A    between atoms: _282  and  _285
REMARK  115  A    between atoms: _285  and  _286
REMARK  116  A    between atoms: _291  and  _292
REMARK  117  A    between atoms: _294  and  _296
REMARK  118  A    between atoms: _296  and  _297
REMARK  119  A    between atoms: _296  and  _299
REMARK  120  A    between atoms: _299  and  _300
REMARK  121  A    between atoms: _303  and  _305
REMARK  122  A    between atoms: _305  and  _306
REMARK  123  A    between atoms: _305  and  _308
REMARK  124  A    between atoms: _308  and  _309
REMARK  125  A    between atoms: _312  and  _314
REMARK  126  A    between atoms: _314  and  _315
REMARK  127  A    between atoms: _314  and  _317
REMARK  128  A    between atoms: _317  and  _318
REMARK  129  A    between atoms: _320  and  _322
REMARK  130  A    between atoms: _322  and  _323
REMARK  131  A    between atoms: _322  and  _325
REMARK  132  A    between atoms: _325  and  _326
REMARK  133  A    between atoms: _326  and  _327
REMARK  134  A    between atoms: _327  and  _328
REMARK  135  A    between atoms: _337  and  _339
REMARK  136  A    between atoms: _339  and  _340
REMARK  137  A    between atoms: _342  and  _344
REMARK  138  A    between atoms: _344  and  _345
REMARK  139  A    between atoms: _344  and  _347
REMARK  140  A    between atoms: _350  and  _352
REMARK  141  A    between atoms: _352  and  _353
REMARK  142  A    between atoms: _352  and  _355
REMARK  143  A    between atoms: _355  and  _356
REMARK  144  A    between atoms: _359  and  _361
REMARK  145  A    between atoms: _361  and  _362
REMARK  146  A    between atoms: _364  and  _366
REMARK  147  A    between atoms: _366  and  _367
REMARK  148  A    between atoms: _366  and  _369
REMARK  149  A    between atoms: _369  and  _370
REMARK  150  A    between atoms: _373  and  _375
REMARK  151  A    between atoms: _375  and  _376
REMARK  152  A    between atoms: _375  and  _378
REMARK  153  A    between atoms: _378  and  _379
REMARK  154  A    between atoms: _379  and  _380
REMARK  155  A    between atoms: _385  and  _387
REMARK  156  A    between atoms: _387  and  _388
REMARK  157  A    between atoms: _390  and  _392
REMARK  158  A    between atoms: _392  and  _393
REMARK  159  A    between atoms: _392  and  _395
REMARK  160  A    between atoms: _395  and  _396
REMARK  161  A    between atoms: _402  and  _404
REMARK  162  A    between atoms: _404  and  _405
REMARK  163  A    between atoms: _407  and  _409
REMARK  164  A    between atoms: _409  and  _410
REMARK  165  A    between atoms: _409  and  _412
REMARK  166  A    between atoms: _412  and  _413
REMARK  167  A    between atoms: _416  and  _418
REMARK  168  A    between atoms: _418  and  _419
REMARK  169  A    between atoms: _418  and  _421
REMARK  170  A    between atoms: _421  and  _422
REMARK  171  A    between atoms: _424  and  _426
REMARK  172  A    between atoms: _426  and  _427
REMARK  173  A    between atoms: _426  and  _429
REMARK  174  A    between atoms: _429  and  _430
REMARK  175  A    between atoms: _430  and  _431
REMARK  176  A    between atoms: _436  and  _438
REMARK  177  A    between atoms: _438  and  _439
REMARK  178  A    between atoms: _438  and  _441
REMARK  179  A    between atoms: _441  and  _442
REMARK  180  A    between atoms: _445  and  _447
REMARK  181  A    between atoms: _447  and  _448
REMARK  182  A    between atoms: _447  and  _450
REMARK  183  A    between atoms: _450  and  _451
REMARK  184  A    between atoms: _453  and  _455
REMARK  185  A    between atoms: _455  and  _456
REMARK  186  A    between atoms: _458  and  _460
REMARK  187  A    between atoms: _460  and  _461
REMARK  188  A    between atoms: _460  and  _463
REMARK  189  A    between atoms: _463  and  _464
REMARK  190  A    between atoms: _466  and  _468
REMARK  191  A    between atoms: _468  and  _469
REMARK  192  A    between atoms: _472  and  _474
REMARK  193  A    between atoms: _474  and  _475
REMARK  194  A    between atoms: _474  and  _477
REMARK  195  A    between atoms: _477  and  _478
REMARK  196  A    between atoms: _481  and  _483
REMARK  197  A    between atoms: _483  and  _484
REMARK  198  A    between atoms: _483  and  _486
REMARK  199  A    between atoms: _489  and  _491
REMARK  200  A    between atoms: _491  and  _492
REMARK  201  A    between atoms: _491  and  _494
REMARK  202  A    between atoms: _494  and  _495
REMARK  203  A    between atoms: _495  and  _496
REMARK  204  A    between atoms: _496  and  _497
REMARK  205  A    between atoms: _497  and  _498
REMARK  206  A    between atoms: _502  and  _504
REMARK  207  A    between atoms: _504  and  _505
REMARK  208  A    between atoms: _504  and  _507
REMARK  209  A    between atoms: _511  and  _512
REMARK  210  A    between atoms: _517  and  _519
REMARK  211  A    between atoms: _519  and  _520
REMARK  212  A    between atoms: _519  and  _522
REMARK  213  A    between atoms: _522  and  _523
REMARK  214  A    between atoms: _523  and  _524
REMARK  215  A    between atoms: _529  and  _531
REMARK  216  A    between atoms: _531  and  _532
REMARK  217  A    between atoms: _531  and  _534
REMARK  218  A    between atoms: _534  and  _535
REMARK  219  A    between atoms: _538  and  _540
REMARK  220  A    between atoms: _540  and  _541
REMARK  221  A    between atoms: _540  and  _543
REMARK  222  A    between atoms: _543  and  _544
REMARK                            x       y       z     vdW  Elec       q    Type
REMARK                         _______ _______ _______ _____ _____    ______ ____
ROOT
ATOM      1  O   HOH     1      54.546  31.353  18.761  0.00  0.00    +0.000 OA
ENDROOT
TORSDOF 0
REMARK  Name = ../refined-set-2016/2clh/2clh_pocket.pdb
REMARK  222 active torsions:
REMARK  status: ('A' for Active; 'I' for Inactive)
REMARK    1  A    between atoms: _1  and  _3
REMARK    2  A    between atoms: _3  and  _4
REMARK    3  A    between atoms: _3  and  _6
REMARK    4  A    between atoms: _10  and  _11
REMARK    5  A    between atoms: _16  and  _18
REMARK    6  A    between atoms: _18  and  _19
REMARK    7  A    between atoms: _18  and  _21
REMARK    8  A    between atoms: _21  and  _22
REMARK    9  A    between atoms: _28  and  _30
REMARK   10  A    between atoms: _30  and  _31
REMARK   11  A    between atoms: _30  and  _33
REMARK   12  A    between atoms: _36  and  _38
REMARK   13  A    between atoms: _38  and  _39
REMARK   14  A    between atoms: _38  and  _41
REMARK   15  A    between atoms: _41  and  _42
REMARK   16  A    between atoms: _45  and  _47
REMARK   17  A    between atoms: _47  and  _48
REMARK   18  A    between atoms: _47  and  _50
REMARK   19  A    between atoms: _50  and  _51
REMARK   20  A    between atoms: _54  and  _56
REMARK   21  A    between atoms: _56  and  _57
REMARK   22  A    between atoms: _56  and  _59
REMARK   23  A    between atoms: _59  and  _60
REMARK   24  A    between atoms: _60  and  _61
REMARK   25  A    between atoms: _64  and  _66
REMARK   26  A    between atoms: _66  and  _67
REMARK   27  A    between atoms: _66  and  _69
REMARK   28  A    between atoms: _69  and  _70
REMARK   29  A    between atoms: _73  and  _75
REMARK   30  A    between atoms: _75  and  _76
REMARK   31  A    between atoms: _79  and  _80
REMARK   32  A    between atoms: _85  and  _87
REMARK   33  A    between atoms: _87  and  _88
REMARK   34  A    between atoms: _87  and  _90
REMARK   35  A    between atoms: _90  and  _91
REMARK   36  A    between atoms: _94  and  _96
REMARK   37  A    between atoms: _96  and  _97
REMARK   38  A    between atoms: _100  and  _102
REMARK   39  A    between atoms: _102  and  _103
REMARK   40  A    between atoms: _102  and  _105
REMARK   41  A    between atoms: _105  and  _106
REMARK   42  A    between atoms: _109  and  _111
REMARK   43  A    between atoms: _111  and  _112
REMARK   44  A    between atoms: _114  and  _116
REMARK   45  A    between atoms: _116  and  _117
REMARK   46  A    between atoms: _116  and  _119
REMARK   47  A    between atoms: _119  and  _120
REMARK   48  A    between atoms: _123  and  _125
REMARK   49  A    between atoms: _125  and  _126
REMARK   50  A    between atoms: _125  and  _128
REMARK   51  A    between atoms: _128  and  _129
REMARK   52  A    between atoms: _132  and  _134
REMARK   53  A    between atoms: _134  and  _135
REMARK   54  A    between atoms: _134  and  _137
REMARK   55  A    between atoms: _137  and  _138
REMARK   56  A    between atoms: _143  and  _145
REMARK   57  A    between atoms: _145  and  _146
REMARK   58  A    between atoms: _148  and  _150
REMARK   59  A    between atoms: _150  and  _151
REMARK   60  A    between atoms: _150  and  _153
REMARK   61  A    between atoms: _153  and  _154
REMARK   62  A    between atoms: _157  and  _159
REMARK   63  A    between atoms: _159  and  _160
REMARK   64  A    between atoms: _159  and  _162
REMARK   65  A    between atoms: _162  and  _163
REMARK   66  A    between atoms: _166  and  _168
REMARK   67  A    between atoms: _168  and  _169
REMARK   68  A    between atoms: _168  and  _171
REMARK   69  A    between atoms: _171  and  _172
REMARK   70  A    between atoms: _172  and  _173
REMARK   71  A    between atoms: _175  and  _177
REMARK   72  A    between atoms: _177  and  _178
REMARK   73  A    between atoms: _177  and  _180
REMARK   74  A    between atoms: _180  and  _181
REMARK   75  A    between atoms: _186  and  _187
REMARK   76  A    between atoms: _189  and  _191
REMARK   77  A    between atoms: _191  and  _192
REMARK   78  A    between atoms: _191  and  _194
REMARK   79  A    between atoms: _194  and  _195
REMARK   80  A    between atoms: _198  and  _200
REMARK   81  A    between atoms: _200  and  _201
REMARK   82  A    between atoms: _200  and  _203
REMARK   83  A    between atoms: _206  and  _208
REMARK   84  A    between atoms: _208  and  _209
REMARK   85  A    between atoms: _212  and  _214
REMARK   86  A    between atoms: _214  and  _215
REMARK   87  A    between atoms: _214  and  _217
REMARK   88  A    between atoms: _217  and  _218
REMARK   89  A    between atoms: _221  and  _223
REMARK   90  A    between atoms: _223  and  _224
REMARK   91  A    between atoms: _223  and  _226
REMARK   92  A    between atoms: _229  and  _231
REMARK   93  A    between atoms: _231  and  _232
REMARK   94  A    between atoms: _231  and  _234
REMARK   95  A    between atoms: _234  and  _235
REMARK   96  A    between atoms: _238  and  _240
REMARK   97  A    between atoms: _240  and  _241
REMARK   98  A    between atoms: _240  and  _243
REMARK   99  A    between atoms: _243  and  _244
REMARK  100  A    between atoms: _250  and  _252
REMARK  101  A    between atoms: _252  and  _253
REMARK  102  A    between atoms: _252  and  _255
REMARK  103  A    between atoms: _255  and  _256
REMARK  104  A    between atoms: _259  and  _261
REMARK  105  A    between atoms: _261  and  _262
REMARK  106  A    between atoms: _261  and  _264
REMARK  107  A    between atoms: _266  and  _268
REMARK  108  A    between atoms: _268  and  _269
REMARK  109  A    between atoms: _268  and  _271
REMARK  110  A    between atoms: _271  and  _272
REMARK  111  A    between atoms: _277  and  _278
REMARK  112  A    between atoms: _280  and  _282
REMARK  113  A    between atoms: _282  and  _283
REMARK  114  A    between atoms: _282  and  _285
REMARK  115  A    between atoms: _285  and  _286
REMARK  116  A    between atoms: _291  and  _292
REMARK  117  A    between atoms: _294  and  _296
REMARK  118  A    between atoms: _296  and  _297
REMARK  119  A    between atoms: _296  and  _299
REMARK  120  A    between atoms: _299  and  _300
REMARK  121  A    between atoms: _303  and  _305
REMARK  122  A    between atoms: _305  and  _306
REMARK  123  A    between atoms: _305  and  _308
REMARK  124  A    between atoms: _308  and  _309
REMARK  125  A    between atoms: _312  and  _314
REMARK  126  A    between atoms: _314  and  _315
REMARK  127  A    between atoms: _314  and  _317
REMARK  128  A    between atoms: _317  and  _318
REMARK  129  A    between atoms: _320  and  _322
REMARK  130  A    between atoms: _322  and  _323
REMARK  131  A    between atoms: _322  and  _325
REMARK  132  A    between atoms: _325  and  _326
REMARK  133  A    between atoms: _326  and  _327
REMARK  134  A    between atoms: _327  and  _328
REMARK  135  A    between atoms: _337  and  _339
REMARK  136  A    between atoms: _339  and  _340
REMARK  137  A    between atoms: _342  and  _344
REMARK  138  A    between atoms: _344  and  _345
REMARK  139  A    between atoms: _344  and  _347
REMARK  140  A    between atoms: _350  and  _352
REMARK  141  A    between atoms: _352  and  _353
REMARK  142  A    between atoms: _352  and  _355
REMARK  143  A    between atoms: _355  and  _356
REMARK  144  A    between atoms: _359  and  _361
REMARK  145  A    between atoms: _361  and  _362
REMARK  146  A    between atoms: _364  and  _366
REMARK  147  A    between atoms: _366  and  _367
REMARK  148  A    between atoms: _366  and  _369
REMARK  149  A    between atoms: _369  and  _370
REMARK  150  A    between atoms: _373  and  _375
REMARK  151  A    between atoms: _375  and  _376
REMARK  152  A    between atoms: _375  and  _378
REMARK  153  A    between atoms: _378  and  _379
REMARK  154  A    between atoms: _379  and  _380
REMARK  155  A    between atoms: _385  and  _387
REMARK  156  A    between atoms: _387  and  _388
REMARK  157  A    between atoms: _390  and  _392
REMARK  158  A    between atoms: _392  and  _393
REMARK  159  A    between atoms: _392  and  _395
REMARK  160  A    between atoms: _395  and  _396
REMARK  161  A    between atoms: _402  and  _404
REMARK  162  A    between atoms: _404  and  _405
REMARK  163  A    between atoms: _407  and  _409
REMARK  164  A    between atoms: _409  and  _410
REMARK  165  A    between atoms: _409  and  _412
REMARK  166  A    between atoms: _412  and  _413
REMARK  167  A    between atoms: _416  and  _418
REMARK  168  A    between atoms: _418  and  _419
REMARK  169  A    between atoms: _418  and  _421
REMARK  170  A    between atoms: _421  and  _422
REMARK  171  A    between atoms: _424  and  _426
REMARK  172  A    between atoms: _426  and  _427
REMARK  173  A    between atoms: _426  and  _429
REMARK  174  A    between atoms: _429  and  _430
REMARK  175  A    between atoms: _430  and  _431
REMARK  176  A    between atoms: _436  and  _438
REMARK  177  A    between atoms: _438  and  _439
REMARK  178  A    between atoms: _438  and  _441
REMARK  179  A    between atoms: _441  and  _442
REMARK  180  A    between atoms: _445  and  _447
REMARK  181  A    between atoms: _447  and  _448
REMARK  182  A    between atoms: _447  and  _450
REMARK  183  A    between atoms: _450  and  _451
REMARK  184  A    between atoms: _453  and  _455
REMARK  185  A    between atoms: _455  and  _456
REMARK  186  A    between atoms: _458  and  _460
REMARK  187  A    between atoms: _460  and  _461
REMARK  188  A    between atoms: _460  and  _463
REMARK  189  A    between atoms: _463  and  _464
REMARK  190  A    between atoms: _466  and  _468
REMARK  191  A    between atoms: _468  and  _469
REMARK  192  A    between atoms: _472  and  _474
REMARK  193  A    between atoms: _474  and  _475
REMARK  194  A    between atoms: _474  and  _477
REMARK  195  A    between atoms: _477  and  _478
REMARK  196  A    between atoms: _481  and  _483
REMARK  197  A    between atoms: _483  and  _484
REMARK  198  A    between atoms: _483  and  _486
REMARK  199  A    between atoms: _489  and  _491
REMARK  200  A    between atoms: _491  and  _492
REMARK  201  A    between atoms: _491  and  _494
REMARK  202  A    between atoms: _494  and  _495
REMARK  203  A    between atoms: _495  and  _496
REMARK  204  A    between atoms: _496  and  _497
REMARK  205  A    between atoms: _497  and  _498
REMARK  206  A    between atoms: _502  and  _504
REMARK  207  A    between atoms: _504  and  _505
REMARK  208  A    between atoms: _504  and  _507
REMARK  209  A    between atoms: _511  and  _512
REMARK  210  A    between atoms: _517  and  _519
REMARK  211  A    between atoms: _519  and  _520
REMARK  212  A    between atoms: _519  and  _522
REMARK  213  A    between atoms: _522  and  _523
REMARK  214  A    between atoms: _523  and  _524
REMARK  215  A    between atoms: _529  and  _531
REMARK  216  A    between atoms: _531  and  _532
REMARK  217  A    between atoms: _531  and  _534
REMARK  218  A    between atoms: _534  and  _535
REMARK  219  A    between atoms: _538  and  _540
REMARK  220  A    between atoms: _540  and  _541
REMARK  221  A    between atoms: _540  and  _543
REMARK  222  A    between atoms: _543  and  _544
REMARK                            x       y       z     vdW  Elec       q    Type
REMARK                         _______ _______ _______ _____ _____    ______ ____
ROOT
ATOM      1  O   HOH     1      45.817  24.684  22.504  0.00  0.00    +0.000 OA
ENDROOT
TORSDOF 0
REMARK  Name = ../refined-set-2016/2clh/2clh_pocket.pdb
REMARK  222 active torsions:
REMARK  status: ('A' for Active; 'I' for Inactive)
REMARK    1  A    between atoms: _1  and  _3
REMARK    2  A    between atoms: _3  and  _4
REMARK    3  A    between atoms: _3  and  _6
REMARK    4  A    between atoms: _10  and  _11
REMARK    5  A    between atoms: _16  and  _18
REMARK    6  A    between atoms: _18  and  _19
REMARK    7  A    between atoms: _18  and  _21
REMARK    8  A    between atoms: _21  and  _22
REMARK    9  A    between atoms: _28  and  _30
REMARK   10  A    between atoms: _30  and  _31
REMARK   11  A    between atoms: _30  and  _33
REMARK   12  A    between atoms: _36  and  _38
REMARK   13  A    between atoms: _38  and  _39
REMARK   14  A    between atoms: _38  and  _41
REMARK   15  A    between atoms: _41  and  _42
REMARK   16  A    between atoms: _45  and  _47
REMARK   17  A    between atoms: _47  and  _48
REMARK   18  A    between atoms: _47  and  _50
REMARK   19  A    between atoms: _50  and  _51
REMARK   20  A    between atoms: _54  and  _56
REMARK   21  A    between atoms: _56  and  _57
REMARK   22  A    between atoms: _56  and  _59
REMARK   23  A    between atoms: _59  and  _60
REMARK   24  A    between atoms: _60  and  _61
REMARK   25  A    between atoms: _64  and  _66
REMARK   26  A    between atoms: _66  and  _67
REMARK   27  A    between atoms: _66  and  _69
REMARK   28  A    between atoms: _69  and  _70
REMARK   29  A    between atoms: _73  and  _75
REMARK   30  A    between atoms: _75  and  _76
REMARK   31  A    between atoms: _79  and  _80
REMARK   32  A    between atoms: _85  and  _87
REMARK   33  A    between atoms: _87  and  _88
REMARK   34  A    between atoms: _87  and  _90
REMARK   35  A    between atoms: _90  and  _91
REMARK   36  A    between atoms: _94  and  _96
REMARK   37  A    between atoms: _96  and  _97
REMARK   38  A    between atoms: _100  and  _102
REMARK   39  A    between atoms: _102  and  _103
REMARK   40  A    between atoms: _102  and  _105
REMARK   41  A    between atoms: _105  and  _106
REMARK   42  A    between atoms: _109  and  _111
REMARK   43  A    between atoms: _111  and  _112
REMARK   44  A    between atoms: _114  and  _116
REMARK   45  A    between atoms: _116  and  _117
REMARK   46  A    between atoms: _116  and  _119
REMARK   47  A    between atoms: _119  and  _120
REMARK   48  A    between atoms: _123  and  _125
REMARK   49  A    between atoms: _125  and  _126
REMARK   50  A    between atoms: _125  and  _128
REMARK   51  A    between atoms: _128  and  _129
REMARK   52  A    between atoms: _132  and  _134
REMARK   53  A    between atoms: _134  and  _135
REMARK   54  A    between atoms: _134  and  _137
REMARK   55  A    between atoms: _137  and  _138
REMARK   56  A    between atoms: _143  and  _145
REMARK   57  A    between atoms: _145  and  _146
REMARK   58  A    between atoms: _148  and  _150
REMARK   59  A    between atoms: _150  and  _151
REMARK   60  A    between atoms: _150  and  _153
REMARK   61  A    between atoms: _153  and  _154
REMARK   62  A    between atoms: _157  and  _159
REMARK   63  A    between atoms: _159  and  _160
REMARK   64  A    between atoms: _159  and  _162
REMARK   65  A    between atoms: _162  and  _163
REMARK   66  A    between atoms: _166  and  _168
REMARK   67  A    between atoms: _168  and  _169
REMARK   68  A    between atoms: _168  and  _171
REMARK   69  A    between atoms: _171  and  _172
REMARK   70  A    between atoms: _172  and  _173
REMARK   71  A    between atoms: _175  and  _177
REMARK   72  A    between atoms: _177  and  _178
REMARK   73  A    between atoms: _177  and  _180
REMARK   74  A    between atoms: _180  and  _181
REMARK   75  A    between atoms: _186  and  _187
REMARK   76  A    between atoms: _189  and  _191
REMARK   77  A    between atoms: _191  and  _192
REMARK   78  A    between atoms: _191  and  _194
REMARK   79  A    between atoms: _194  and  _195
REMARK   80  A    between atoms: _198  and  _200
REMARK   81  A    between atoms: _200  and  _201
REMARK   82  A    between atoms: _200  and  _203
REMARK   83  A    between atoms: _206  and  _208
REMARK   84  A    between atoms: _208  and  _209
REMARK   85  A    between atoms: _212  and  _214
REMARK   86  A    between atoms: _214  and  _215
REMARK   87  A    between atoms: _214  and  _217
REMARK   88  A    between atoms: _217  and  _218
REMARK   89  A    between atoms: _221  and  _223
REMARK   90  A    between atoms: _223  and  _224
REMARK   91  A    between atoms: _223  and  _226
REMARK   92  A    between atoms: _229  and  _231
REMARK   93  A    between atoms: _231  and  _232
REMARK   94  A    between atoms: _231  and  _234
REMARK   95  A    between atoms: _234  and  _235
REMARK   96  A    between atoms: _238  and  _240
REMARK   97  A    between atoms: _240  and  _241
REMARK   98  A    between atoms: _240  and  _243
REMARK   99  A    between atoms: _243  and  _244
REMARK  100  A    between atoms: _250  and  _252
REMARK  101  A    between atoms: _252  and  _253
REMARK  102  A    between atoms: _252  and  _255
REMARK  103  A    between atoms: _255  and  _256
REMARK  104  A    between atoms: _259  and  _261
REMARK  105  A    between atoms: _261  and  _262
REMARK  106  A    between atoms: _261  and  _264
REMARK  107  A    between atoms: _266  and  _268
REMARK  108  A    between atoms: _268  and  _269
REMARK  109  A    between atoms: _268  and  _271
REMARK  110  A    between atoms: _271  and  _272
REMARK  111  A    between atoms: _277  and  _278
REMARK  112  A    between atoms: _280  and  _282
REMARK  113  A    between atoms: _282  and  _283
REMARK  114  A    between atoms: _282  and  _285
REMARK  115  A    between atoms: _285  and  _286
REMARK  116  A    between atoms: _291  and  _292
REMARK  117  A    between atoms: _294  and  _296
REMARK  118  A    between atoms: _296  and  _297
REMARK  119  A    between atoms: _296  and  _299
REMARK  120  A    between atoms: _299  and  _300
REMARK  121  A    between atoms: _303  and  _305
REMARK  122  A    between atoms: _305  and  _306
REMARK  123  A    between atoms: _305  and  _308
REMARK  124  A    between atoms: _308  and  _309
REMARK  125  A    between atoms: _312  and  _314
REMARK  126  A    between atoms: _314  and  _315
REMARK  127  A    between atoms: _314  and  _317
REMARK  128  A    between atoms: _317  and  _318
REMARK  129  A    between atoms: _320  and  _322
REMARK  130  A    between atoms: _322  and  _323
REMARK  131  A    between atoms: _322  and  _325
REMARK  132  A    between atoms: _325  and  _326
REMARK  133  A    between atoms: _326  and  _327
REMARK  134  A    between atoms: _327  and  _328
REMARK  135  A    between atoms: _337  and  _339
REMARK  136  A    between atoms: _339  and  _340
REMARK  137  A    between atoms: _342  and  _344
REMARK  138  A    between atoms: _344  and  _345
REMARK  139  A    between atoms: _344  and  _347
REMARK  140  A    between atoms: _350  and  _352
REMARK  141  A    between atoms: _352  and  _353
REMARK  142  A    between atoms: _352  and  _355
REMARK  143  A    between atoms: _355  and  _356
REMARK  144  A    between atoms: _359  and  _361
REMARK  145  A    between atoms: _361  and  _362
REMARK  146  A    between atoms: _364  and  _366
REMARK  147  A    between atoms: _366  and  _367
REMARK  148  A    between atoms: _366  and  _369
REMARK  149  A    between atoms: _369  and  _370
REMARK  150  A    between atoms: _373  and  _375
REMARK  151  A    between atoms: _375  and  _376
REMARK  152  A    between atoms: _375  and  _378
REMARK  153  A    between atoms: _378  and  _379
REMARK  154  A    between atoms: _379  and  _380
REMARK  155  A    between atoms: _385  and  _387
REMARK  156  A    between atoms: _387  and  _388
REMARK  157  A    between atoms: _390  and  _392
REMARK  158  A    between atoms: _392  and  _393
REMARK  159  A    between atoms: _392  and  _395
REMARK  160  A    between atoms: _395  and  _396
REMARK  161  A    between atoms: _402  and  _404
REMARK  162  A    between atoms: _404  and  _405
REMARK  163  A    between atoms: _407  and  _409
REMARK  164  A    between atoms: _409  and  _410
REMARK  165  A    between atoms: _409  and  _412
REMARK  166  A    between atoms: _412  and  _413
REMARK  167  A    between atoms: _416  and  _418
REMARK  168  A    between atoms: _418  and  _419
REMARK  169  A    between atoms: _418  and  _421
REMARK  170  A    between atoms: _421  and  _422
REMARK  171  A    between atoms: _424  and  _426
REMARK  172  A    between atoms: _426  and  _427
REMARK  173  A    between atoms: _426  and  _429
REMARK  174  A    between atoms: _429  and  _430
REMARK  175  A    between atoms: _430  and  _431
REMARK  176  A    between atoms: _436  and  _438
REMARK  177  A    between atoms: _438  and  _439
REMARK  178  A    between atoms: _438  and  _441
REMARK  179  A    between atoms: _441  and  _442
REMARK  180  A    between atoms: _445  and  _447
REMARK  181  A    between atoms: _447  and  _448
REMARK  182  A    between atoms: _447  and  _450
REMARK  183  A    between atoms: _450  and  _451
REMARK  184  A    between atoms: _453  and  _455
REMARK  185  A    between atoms: _455  and  _456
REMARK  186  A    between atoms: _458  and  _460
REMARK  187  A    between atoms: _460  and  _461
REMARK  188  A    between atoms: _460  and  _463
REMARK  189  A    between atoms: _463  and  _464
REMARK  190  A    between atoms: _466  and  _468
REMARK  191  A    between atoms: _468  and  _469
REMARK  192  A    between atoms: _472  and  _474
REMARK  193  A    between atoms: _474  and  _475
REMARK  194  A    between atoms: _474  and  _477
REMARK  195  A    between atoms: _477  and  _478
REMARK  196  A    between atoms: _481  and  _483
REMARK  197  A    between atoms: _483  and  _484
REMARK  198  A    between atoms: _483  and  _486
REMARK  199  A    between atoms: _489  and  _491
REMARK  200  A    between atoms: _491  and  _492
REMARK  201  A    between atoms: _491  and  _494
REMARK  202  A    between atoms: _494  and  _495
REMARK  203  A    between atoms: _495  and  _496
REMARK  204  A    between atoms: _496  and  _497
REMARK  205  A    between atoms: _497  and  _498
REMARK  206  A    between atoms: _502  and  _504
REMARK  207  A    between atoms: _504  and  _505
REMARK  208  A    between atoms: _504  and  _507
REMARK  209  A    between atoms: _511  and  _512
REMARK  210  A    between atoms: _517  and  _519
REMARK  211  A    between atoms: _519  and  _520
REMARK  212  A    between atoms: _519  and  _522
REMARK  213  A    between atoms: _522  and  _523
REMARK  214  A    between atoms: _523  and  _524
REMARK  215  A    between atoms: _529  and  _531
REMARK  216  A    between atoms: _531  and  _532
REMARK  217  A    between atoms: _531  and  _534
REMARK  218  A    between atoms: _534  and  _535
REMARK  219  A    between atoms: _538  and  _540
REMARK  220  A    between atoms: _540  and  _541
REMARK  221  A    between atoms: _540  and  _543
REMARK  222  A    between atoms: _543  and  _544
REMARK                            x       y       z     vdW  Elec       q    Type
REMARK                         _______ _______ _______ _____ _____    ______ ____
ROOT
ATOM      1  O   HOH     1      57.233  20.309  10.578  0.00  0.00    +0.000 OA
ENDROOT
TORSDOF 0
REMARK  Name = ../refined-set-2016/2clh/2clh_pocket.pdb
REMARK  222 active torsions:
REMARK  status: ('A' for Active; 'I' for Inactive)
REMARK    1  A    between atoms: _1  and  _3
REMARK    2  A    between atoms: _3  and  _4
REMARK    3  A    between atoms: _3  and  _6
REMARK    4  A    between atoms: _10  and  _11
REMARK    5  A    between atoms: _16  and  _18
REMARK    6  A    between atoms: _18  and  _19
REMARK    7  A    between atoms: _18  and  _21
REMARK    8  A    between atoms: _21  and  _22
REMARK    9  A    between atoms: _28  and  _30
REMARK   10  A    between atoms: _30  and  _31
REMARK   11  A    between atoms: _30  and  _33
REMARK   12  A    between atoms: _36  and  _38
REMARK   13  A    between atoms: _38  and  _39
REMARK   14  A    between atoms: _38  and  _41
REMARK   15  A    between atoms: _41  and  _42
REMARK   16  A    between atoms: _45  and  _47
REMARK   17  A    between atoms: _47  and  _48
REMARK   18  A    between atoms: _47  and  _50
REMARK   19  A    between atoms: _50  and  _51
REMARK   20  A    between atoms: _54  and  _56
REMARK   21  A    between atoms: _56  and  _57
REMARK   22  A    between atoms: _56  and  _59
REMARK   23  A    between atoms: _59  and  _60
REMARK   24  A    between atoms: _60  and  _61
REMARK   25  A    between atoms: _64  and  _66
REMARK   26  A    between atoms: _66  and  _67
REMARK   27  A    between atoms: _66  and  _69
REMARK   28  A    between atoms: _69  and  _70
REMARK   29  A    between atoms: _73  and  _75
REMARK   30  A    between atoms: _75  and  _76
REMARK   31  A    between atoms: _79  and  _80
REMARK   32  A    between atoms: _85  and  _87
REMARK   33  A    between atoms: _87  and  _88
REMARK   34  A    between atoms: _87  and  _90
REMARK   35  A    between atoms: _90  and  _91
REMARK   36  A    between atoms: _94  and  _96
REMARK   37  A    between atoms: _96  and  _97
REMARK   38  A    between atoms: _100  and  _102
REMARK   39  A    between atoms: _102  and  _103
REMARK   40  A    between atoms: _102  and  _105
REMARK   41  A    between atoms: _105  and  _106
REMARK   42  A    between atoms: _109  and  _111
REMARK   43  A    between atoms: _111  and  _112
REMARK   44  A    between atoms: _114  and  _116
REMARK   45  A    between atoms: _116  and  _117
REMARK   46  A    between atoms: _116  and  _119
REMARK   47  A    between atoms: _119  and  _120
REMARK   48  A    between atoms: _123  and  _125
REMARK   49  A    between atoms: _125  and  _126
REMARK   50  A    between atoms: _125  and  _128
REMARK   51  A    between atoms: _128  and  _129
REMARK   52  A    between atoms: _132  and  _134
REMARK   53  A    between atoms: _134  and  _135
REMARK   54  A    between atoms: _134  and  _137
REMARK   55  A    between atoms: _137  and  _138
REMARK   56  A    between atoms: _143  and  _145
REMARK   57  A    between atoms: _145  and  _146
REMARK   58  A    between atoms: _148  and  _150
REMARK   59  A    between atoms: _150  and  _151
REMARK   60  A    between atoms: _150  and  _153
REMARK   61  A    between atoms: _153  and  _154
REMARK   62  A    between atoms: _157  and  _159
REMARK   63  A    between atoms: _159  and  _160
REMARK   64  A    between atoms: _159  and  _162
REMARK   65  A    between atoms: _162  and  _163
REMARK   66  A    between atoms: _166  and  _168
REMARK   67  A    between atoms: _168  and  _169
REMARK   68  A    between atoms: _168  and  _171
REMARK   69  A    between atoms: _171  and  _172
REMARK   70  A    between atoms: _172  and  _173
REMARK   71  A    between atoms: _175  and  _177
REMARK   72  A    between atoms: _177  and  _178
REMARK   73  A    between atoms: _177  and  _180
REMARK   74  A    between atoms: _180  and  _181
REMARK   75  A    between atoms: _186  and  _187
REMARK   76  A    between atoms: _189  and  _191
REMARK   77  A    between atoms: _191  and  _192
REMARK   78  A    between atoms: _191  and  _194
REMARK   79  A    between atoms: _194  and  _195
REMARK   80  A    between atoms: _198  and  _200
REMARK   81  A    between atoms: _200  and  _201
REMARK   82  A    between atoms: _200  and  _203
REMARK   83  A    between atoms: _206  and  _208
REMARK   84  A    between atoms: _208  and  _209
REMARK   85  A    between atoms: _212  and  _214
REMARK   86  A    between atoms: _214  and  _215
REMARK   87  A    between atoms: _214  and  _217
REMARK   88  A    between atoms: _217  and  _218
REMARK   89  A    between atoms: _221  and  _223
REMARK   90  A    between atoms: _223  and  _224
REMARK   91  A    between atoms: _223  and  _226
REMARK   92  A    between atoms: _229  and  _231
REMARK   93  A    between atoms: _231  and  _232
REMARK   94  A    between atoms: _231  and  _234
REMARK   95  A    between atoms: _234  and  _235
REMARK   96  A    between atoms: _238  and  _240
REMARK   97  A    between atoms: _240  and  _241
REMARK   98  A    between atoms: _240  and  _243
REMARK   99  A    between atoms: _243  and  _244
REMARK  100  A    between atoms: _250  and  _252
REMARK  101  A    between atoms: _252  and  _253
REMARK  102  A    between atoms: _252  and  _255
REMARK  103  A    between atoms: _255  and  _256
REMARK  104  A    between atoms: _259  and  _261
REMARK  105  A    between atoms: _261  and  _262
REMARK  106  A    between atoms: _261  and  _264
REMARK  107  A    between atoms: _266  and  _268
REMARK  108  A    between atoms: _268  and  _269
REMARK  109  A    between atoms: _268  and  _271
REMARK  110  A    between atoms: _271  and  _272
REMARK  111  A    between atoms: _277  and  _278
REMARK  112  A    between atoms: _280  and  _282
REMARK  113  A    between atoms: _282  and  _283
REMARK  114  A    between atoms: _282  and  _285
REMARK  115  A    between atoms: _285  and  _286
REMARK  116  A    between atoms: _291  and  _292
REMARK  117  A    between atoms: _294  and  _296
REMARK  118  A    between atoms: _296  and  _297
REMARK  119  A    between atoms: _296  and  _299
REMARK  120  A    between atoms: _299  and  _300
REMARK  121  A    between atoms: _303  and  _305
REMARK  122  A    between atoms: _305  and  _306
REMARK  123  A    between atoms: _305  and  _308
REMARK  124  A    between atoms: _308  and  _309
REMARK  125  A    between atoms: _312  and  _314
REMARK  126  A    between atoms: _314  and  _315
REMARK  127  A    between atoms: _314  and  _317
REMARK  128  A    between atoms: _317  and  _318
REMARK  129  A    between atoms: _320  and  _322
REMARK  130  A    between atoms: _322  and  _323
REMARK  131  A    between atoms: _322  and  _325
REMARK  132  A    between atoms: _325  and  _326
REMARK  133  A    between atoms: _326  and  _327
REMARK  134  A    between atoms: _327  and  _328
REMARK  135  A    between atoms: _337  and  _339
REMARK  136  A    between atoms: _339  and  _340
REMARK  137  A    between atoms: _342  and  _344
REMARK  138  A    between atoms: _344  and  _345
REMARK  139  A    between atoms: _344  and  _347
REMARK  140  A    between atoms: _350  and  _352
REMARK  141  A    between atoms: _352  and  _353
REMARK  142  A    between atoms: _352  and  _355
REMARK  143  A    between atoms: _355  and  _356
REMARK  144  A    between atoms: _359  and  _361
REMARK  145  A    between atoms: _361  and  _362
REMARK  146  A    between atoms: _364  and  _366
REMARK  147  A    between atoms: _366  and  _367
REMARK  148  A    between atoms: _366  and  _369
REMARK  149  A    between atoms: _369  and  _370
REMARK  150  A    between atoms: _373  and  _375
REMARK  151  A    between atoms: _375  and  _376
REMARK  152  A    between atoms: _375  and  _378
REMARK  153  A    between atoms: _378  and  _379
REMARK  154  A    between atoms: _379  and  _380
REMARK  155  A    between atoms: _385  and  _387
REMARK  156  A    between atoms: _387  and  _388
REMARK  157  A    between atoms: _390  and  _392
REMARK  158  A    between atoms: _392  and  _393
REMARK  159  A    between atoms: _392  and  _395
REMARK  160  A    between atoms: _395  and  _396
REMARK  161  A    between atoms: _402  and  _404
REMARK  162  A    between atoms: _404  and  _405
REMARK  163  A    between atoms: _407  and  _409
REMARK  164  A    between atoms: _409  and  _410
REMARK  165  A    between atoms: _409  and  _412
REMARK  166  A    between atoms: _412  and  _413
REMARK  167  A    between atoms: _416  and  _418
REMARK  168  A    between atoms: _418  and  _419
REMARK  169  A    between atoms: _418  and  _421
REMARK  170  A    between atoms: _421  and  _422
REMARK  171  A    between atoms: _424  and  _426
REMARK  172  A    between atoms: _426  and  _427
REMARK  173  A    between atoms: _426  and  _429
REMARK  174  A    between atoms: _429  and  _430
REMARK  175  A    between atoms: _430  and  _431
REMARK  176  A    between atoms: _436  and  _438
REMARK  177  A    between atoms: _438  and  _439
REMARK  178  A    between atoms: _438  and  _441
REMARK  179  A    between atoms: _441  and  _442
REMARK  180  A    between atoms: _445  and  _447
REMARK  181  A    between atoms: _447  and  _448
REMARK  182  A    between atoms: _447  and  _450
REMARK  183  A    between atoms: _450  and  _451
REMARK  184  A    between atoms: _453  and  _455
REMARK  185  A    between atoms: _455  and  _456
REMARK  186  A    between atoms: _458  and  _460
REMARK  187  A    between atoms: _460  and  _461
REMARK  188  A    between atoms: _460  and  _463
REMARK  189  A    between atoms: _463  and  _464
REMARK  190  A    between atoms: _466  and  _468
REMARK  191  A    between atoms: _468  and  _469
REMARK  192  A    between atoms: _472  and  _474
REMARK  193  A    between atoms: _474  and  _475
REMARK  194  A    between atoms: _474  and  _477
REMARK  195  A    between atoms: _477  and  _478
REMARK  196  A    between atoms: _481  and  _483
REMARK  197  A    between atoms: _483  and  _484
REMARK  198  A    between atoms: _483  and  _486
REMARK  199  A    between atoms: _489  and  _491
REMARK  200  A    between atoms: _491  and  _492
REMARK  201  A    between atoms: _491  and  _494
REMARK  202  A    between atoms: _494  and  _495
REMARK  203  A    between atoms: _495  and  _496
REMARK  204  A    between atoms: _496  and  _497
REMARK  205  A    between atoms: _497  and  _498
REMARK  206  A    between atoms: _502  and  _504
REMARK  207  A    between atoms: _504  and  _505
REMARK  208  A    between atoms: _504  and  _507
REMARK  209  A    between atoms: _511  and  _512
REMARK  210  A    between atoms: _517  and  _519
REMARK  211  A    between atoms: _519  and  _520
REMARK  212  A    between atoms: _519  and  _522
REMARK  213  A    between atoms: _522  and  _523
REMARK  214  A    between atoms: _523  and  _524
REMARK  215  A    between atoms: _529  and  _531
REMARK  216  A    between atoms: _531  and  _532
REMARK  217  A    between atoms: _531  and  _534
REMARK  218  A    between atoms: _534  and  _535
REMARK  219  A    between atoms: _538  and  _540
REMARK  220  A    between atoms: _540  and  _541
REMARK  221  A    between atoms: _540  and  _543
REMARK  222  A    between atoms: _543  and  _544
REMARK                            x       y       z     vdW  Elec       q    Type
REMARK                         _______ _______ _______ _____ _____    ______ ____
ROOT
ATOM      1  O   HOH     1      54.841  29.264  17.233  0.00  0.00    +0.000 OA
ENDROOT
TORSDOF 0
REMARK  Name = ../refined-set-2016/2clh/2clh_pocket.pdb
REMARK  222 active torsions:
REMARK  status: ('A' for Active; 'I' for Inactive)
REMARK    1  A    between atoms: _1  and  _3
REMARK    2  A    between atoms: _3  and  _4
REMARK    3  A    between atoms: _3  and  _6
REMARK    4  A    between atoms: _10  and  _11
REMARK    5  A    between atoms: _16  and  _18
REMARK    6  A    between atoms: _18  and  _19
REMARK    7  A    between atoms: _18  and  _21
REMARK    8  A    between atoms: _21  and  _22
REMARK    9  A    between atoms: _28  and  _30
REMARK   10  A    between atoms: _30  and  _31
REMARK   11  A    between atoms: _30  and  _33
REMARK   12  A    between atoms: _36  and  _38
REMARK   13  A    between atoms: _38  and  _39
REMARK   14  A    between atoms: _38  and  _41
REMARK   15  A    between atoms: _41  and  _42
REMARK   16  A    between atoms: _45  and  _47
REMARK   17  A    between atoms: _47  and  _48
REMARK   18  A    between atoms: _47  and  _50
REMARK   19  A    between atoms: _50  and  _51
REMARK   20  A    between atoms: _54  and  _56
REMARK   21  A    between atoms: _56  and  _57
REMARK   22  A    between atoms: _56  and  _59
REMARK   23  A    between atoms: _59  and  _60
REMARK   24  A    between atoms: _60  and  _61
REMARK   25  A    between atoms: _64  and  _66
REMARK   26  A    between atoms: _66  and  _67
REMARK   27  A    between atoms: _66  and  _69
REMARK   28  A    between atoms: _69  and  _70
REMARK   29  A    between atoms: _73  and  _75
REMARK   30  A    between atoms: _75  and  _76
REMARK   31  A    between atoms: _79  and  _80
REMARK   32  A    between atoms: _85  and  _87
REMARK   33  A    between atoms: _87  and  _88
REMARK   34  A    between atoms: _87  and  _90
REMARK   35  A    between atoms: _90  and  _91
REMARK   36  A    between atoms: _94  and  _96
REMARK   37  A    between atoms: _96  and  _97
REMARK   38  A    between atoms: _100  and  _102
REMARK   39  A    between atoms: _102  and  _103
REMARK   40  A    between atoms: _102  and  _105
REMARK   41  A    between atoms: _105  and  _106
REMARK   42  A    between atoms: _109  and  _111
REMARK   43  A    between atoms: _111  and  _112
REMARK   44  A    between atoms: _114  and  _116
REMARK   45  A    between atoms: _116  and  _117
REMARK   46  A    between atoms: _116  and  _119
REMARK   47  A    between atoms: _119  and  _120
REMARK   48  A    between atoms: _123  and  _125
REMARK   49  A    between atoms: _125  and  _126
REMARK   50  A    between atoms: _125  and  _128
REMARK   51  A    between atoms: _128  and  _129
REMARK   52  A    between atoms: _132  and  _134
REMARK   53  A    between atoms: _134  and  _135
REMARK   54  A    between atoms: _134  and  _137
REMARK   55  A    between atoms: _137  and  _138
REMARK   56  A    between atoms: _143  and  _145
REMARK   57  A    between atoms: _145  and  _146
REMARK   58  A    between atoms: _148  and  _150
REMARK   59  A    between atoms: _150  and  _151
REMARK   60  A    between atoms: _150  and  _153
REMARK   61  A    between atoms: _153  and  _154
REMARK   62  A    between atoms: _157  and  _159
REMARK   63  A    between atoms: _159  and  _160
REMARK   64  A    between atoms: _159  and  _162
REMARK   65  A    between atoms: _162  and  _163
REMARK   66  A    between atoms: _166  and  _168
REMARK   67  A    between atoms: _168  and  _169
REMARK   68  A    between atoms: _168  and  _171
REMARK   69  A    between atoms: _171  and  _172
REMARK   70  A    between atoms: _172  and  _173
REMARK   71  A    between atoms: _175  and  _177
REMARK   72  A    between atoms: _177  and  _178
REMARK   73  A    between atoms: _177  and  _180
REMARK   74  A    between atoms: _180  and  _181
REMARK   75  A    between atoms: _186  and  _187
REMARK   76  A    between atoms: _189  and  _191
REMARK   77  A    between atoms: _191  and  _192
REMARK   78  A    between atoms: _191  and  _194
REMARK   79  A    between atoms: _194  and  _195
REMARK   80  A    between atoms: _198  and  _200
REMARK   81  A    between atoms: _200  and  _201
REMARK   82  A    between atoms: _200  and  _203
REMARK   83  A    between atoms: _206  and  _208
REMARK   84  A    between atoms: _208  and  _209
REMARK   85  A    between atoms: _212  and  _214
REMARK   86  A    between atoms: _214  and  _215
REMARK   87  A    between atoms: _214  and  _217
REMARK   88  A    between atoms: _217  and  _218
REMARK   89  A    between atoms: _221  and  _223
REMARK   90  A    between atoms: _223  and  _224
REMARK   91  A    between atoms: _223  and  _226
REMARK   92  A    between atoms: _229  and  _231
REMARK   93  A    between atoms: _231  and  _232
REMARK   94  A    between atoms: _231  and  _234
REMARK   95  A    between atoms: _234  and  _235
REMARK   96  A    between atoms: _238  and  _240
REMARK   97  A    between atoms: _240  and  _241
REMARK   98  A    between atoms: _240  and  _243
REMARK   99  A    between atoms: _243  and  _244
REMARK  100  A    between atoms: _250  and  _252
REMARK  101  A    between atoms: _252  and  _253
REMARK  102  A    between atoms: _252  and  _255
REMARK  103  A    between atoms: _255  and  _256
REMARK  104  A    between atoms: _259  and  _261
REMARK  105  A    between atoms: _261  and  _262
REMARK  106  A    between atoms: _261  and  _264
REMARK  107  A    between atoms: _266  and  _268
REMARK  108  A    between atoms: _268  and  _269
REMARK  109  A    between atoms: _268  and  _271
REMARK  110  A    between atoms: _271  and  _272
REMARK  111  A    between atoms: _277  and  _278
REMARK  112  A    between atoms: _280  and  _282
REMARK  113  A    between atoms: _282  and  _283
REMARK  114  A    between atoms: _282  and  _285
REMARK  115  A    between atoms: _285  and  _286
REMARK  116  A    between atoms: _291  and  _292
REMARK  117  A    between atoms: _294  and  _296
REMARK  118  A    between atoms: _296  and  _297
REMARK  119  A    between atoms: _296  and  _299
REMARK  120  A    between atoms: _299  and  _300
REMARK  121  A    between atoms: _303  and  _305
REMARK  122  A    between atoms: _305  and  _306
REMARK  123  A    between atoms: _305  and  _308
REMARK  124  A    between atoms: _308  and  _309
REMARK  125  A    between atoms: _312  and  _314
REMARK  126  A    between atoms: _314  and  _315
REMARK  127  A    between atoms: _314  and  _317
REMARK  128  A    between atoms: _317  and  _318
REMARK  129  A    between atoms: _320  and  _322
REMARK  130  A    between atoms: _322  and  _323
REMARK  131  A    between atoms: _322  and  _325
REMARK  132  A    between atoms: _325  and  _326
REMARK  133  A    between atoms: _326  and  _327
REMARK  134  A    between atoms: _327  and  _328
REMARK  135  A    between atoms: _337  and  _339
REMARK  136  A    between atoms: _339  and  _340
REMARK  137  A    between atoms: _342  and  _344
REMARK  138  A    between atoms: _344  and  _345
REMARK  139  A    between atoms: _344  and  _347
REMARK  140  A    between atoms: _350  and  _352
REMARK  141  A    between atoms: _352  and  _353
REMARK  142  A    between atoms: _352  and  _355
REMARK  143  A    between atoms: _355  and  _356
REMARK  144  A    between atoms: _359  and  _361
REMARK  145  A    between atoms: _361  and  _362
REMARK  146  A    between atoms: _364  and  _366
REMARK  147  A    between atoms: _366  and  _367
REMARK  148  A    between atoms: _366  and  _369
REMARK  149  A    between atoms: _369  and  _370
REMARK  150  A    between atoms: _373  and  _375
REMARK  151  A    between atoms: _375  and  _376
REMARK  152  A    between atoms: _375  and  _378
REMARK  153  A    between atoms: _378  and  _379
REMARK  154  A    between atoms: _379  and  _380
REMARK  155  A    between atoms: _385  and  _387
REMARK  156  A    between atoms: _387  and  _388
REMARK  157  A    between atoms: _390  and  _392
REMARK  158  A    between atoms: _392  and  _393
REMARK  159  A    between atoms: _392  and  _395
REMARK  160  A    between atoms: _395  and  _396
REMARK  161  A    between atoms: _402  and  _404
REMARK  162  A    between atoms: _404  and  _405
REMARK  163  A    between atoms: _407  and  _409
REMARK  164  A    between atoms: _409  and  _410
REMARK  165  A    between atoms: _409  and  _412
REMARK  166  A    between atoms: _412  and  _413
REMARK  167  A    between atoms: _416  and  _418
REMARK  168  A    between atoms: _418  and  _419
REMARK  169  A    between atoms: _418  and  _421
REMARK  170  A    between atoms: _421  and  _422
REMARK  171  A    between atoms: _424  and  _426
REMARK  172  A    between atoms: _426  and  _427
REMARK  173  A    between atoms: _426  and  _429
REMARK  174  A    between atoms: _429  and  _430
REMARK  175  A    between atoms: _430  and  _431
REMARK  176  A    between atoms: _436  and  _438
REMARK  177  A    between atoms: _438  and  _439
REMARK  178  A    between atoms: _438  and  _441
REMARK  179  A    between atoms: _441  and  _442
REMARK  180  A    between atoms: _445  and  _447
REMARK  181  A    between atoms: _447  and  _448
REMARK  182  A    between atoms: _447  and  _450
REMARK  183  A    between atoms: _450  and  _451
REMARK  184  A    between atoms: _453  and  _455
REMARK  185  A    between atoms: _455  and  _456
REMARK  186  A    between atoms: _458  and  _460
REMARK  187  A    between atoms: _460  and  _461
REMARK  188  A    between atoms: _460  and  _463
REMARK  189  A    between atoms: _463  and  _464
REMARK  190  A    between atoms: _466  and  _468
REMARK  191  A    between atoms: _468  and  _469
REMARK  192  A    between atoms: _472  and  _474
REMARK  193  A    between atoms: _474  and  _475
REMARK  194  A    between atoms: _474  and  _477
REMARK  195  A    between atoms: _477  and  _478
REMARK  196  A    between atoms: _481  and  _483
REMARK  197  A    between atoms: _483  and  _484
REMARK  198  A    between atoms: _483  and  _486
REMARK  199  A    between atoms: _489  and  _491
REMARK  200  A    between atoms: _491  and  _492
REMARK  201  A    between atoms: _491  and  _494
REMARK  202  A    between atoms: _494  and  _495
REMARK  203  A    between atoms: _495  and  _496
REMARK  204  A    between atoms: _496  and  _497
REMARK  205  A    between atoms: _497  and  _498
REMARK  206  A    between atoms: _502  and  _504
REMARK  207  A    between atoms: _504  and  _505
REMARK  208  A    between atoms: _504  and  _507
REMARK  209  A    between atoms: _511  and  _512
REMARK  210  A    between atoms: _517  and  _519
REMARK  211  A    between atoms: _519  and  _520
REMARK  212  A    between atoms: _519  and  _522
REMARK  213  A    between atoms: _522  and  _523
REMARK  214  A    between atoms: _523  and  _524
REMARK  215  A    between atoms: _529  and  _531
REMARK  216  A    between atoms: _531  and  _532
REMARK  217  A    between atoms: _531  and  _534
REMARK  218  A    between atoms: _534  and  _535
REMARK  219  A    between atoms: _538  and  _540
REMARK  220  A    between atoms: _540  and  _541
REMARK  221  A    between atoms: _540  and  _543
REMARK  222  A    between atoms: _543  and  _544
REMARK                            x       y       z     vdW  Elec       q    Type
REMARK                         _______ _______ _______ _____ _____    ______ ____
ROOT
ATOM      1  O   HOH     1      51.522  28.868  15.093  0.00  0.00    +0.000 OA
ENDROOT
TORSDOF 0
REMARK  Name = ../refined-set-2016/2clh/2clh_pocket.pdb
REMARK  222 active torsions:
REMARK  status: ('A' for Active; 'I' for Inactive)
REMARK    1  A    between atoms: _1  and  _3
REMARK    2  A    between atoms: _3  and  _4
REMARK    3  A    between atoms: _3  and  _6
REMARK    4  A    between atoms: _10  and  _11
REMARK    5  A    between atoms: _16  and  _18
REMARK    6  A    between atoms: _18  and  _19
REMARK    7  A    between atoms: _18  and  _21
REMARK    8  A    between atoms: _21  and  _22
REMARK    9  A    between atoms: _28  and  _30
REMARK   10  A    between atoms: _30  and  _31
REMARK   11  A    between atoms: _30  and  _33
REMARK   12  A    between atoms: _36  and  _38
REMARK   13  A    between atoms: _38  and  _39
REMARK   14  A    between atoms: _38  and  _41
REMARK   15  A    between atoms: _41  and  _42
REMARK   16  A    between atoms: _45  and  _47
REMARK   17  A    between atoms: _47  and  _48
REMARK   18  A    between atoms: _47  and  _50
REMARK   19  A    between atoms: _50  and  _51
REMARK   20  A    between atoms: _54  and  _56
REMARK   21  A    between atoms: _56  and  _57
REMARK   22  A    between atoms: _56  and  _59
REMARK   23  A    between atoms: _59  and  _60
REMARK   24  A    between atoms: _60  and  _61
REMARK   25  A    between atoms: _64  and  _66
REMARK   26  A    between atoms: _66  and  _67
REMARK   27  A    between atoms: _66  and  _69
REMARK   28  A    between atoms: _69  and  _70
REMARK   29  A    between atoms: _73  and  _75
REMARK   30  A    between atoms: _75  and  _76
REMARK   31  A    between atoms: _79  and  _80
REMARK   32  A    between atoms: _85  and  _87
REMARK   33  A    between atoms: _87  and  _88
REMARK   34  A    between atoms: _87  and  _90
REMARK   35  A    between atoms: _90  and  _91
REMARK   36  A    between atoms: _94  and  _96
REMARK   37  A    between atoms: _96  and  _97
REMARK   38  A    between atoms: _100  and  _102
REMARK   39  A    between atoms: _102  and  _103
REMARK   40  A    between atoms: _102  and  _105
REMARK   41  A    between atoms: _105  and  _106
REMARK   42  A    between atoms: _109  and  _111
REMARK   43  A    between atoms: _111  and  _112
REMARK   44  A    between atoms: _114  and  _116
REMARK   45  A    between atoms: _116  and  _117
REMARK   46  A    between atoms: _116  and  _119
REMARK   47  A    between atoms: _119  and  _120
REMARK   48  A    between atoms: _123  and  _125
REMARK   49  A    between atoms: _125  and  _126
REMARK   50  A    between atoms: _125  and  _128
REMARK   51  A    between atoms: _128  and  _129
REMARK   52  A    between atoms: _132  and  _134
REMARK   53  A    between atoms: _134  and  _135
REMARK   54  A    between atoms: _134  and  _137
REMARK   55  A    between atoms: _137  and  _138
REMARK   56  A    between atoms: _143  and  _145
REMARK   57  A    between atoms: _145  and  _146
REMARK   58  A    between atoms: _148  and  _150
REMARK   59  A    between atoms: _150  and  _151
REMARK   60  A    between atoms: _150  and  _153
REMARK   61  A    between atoms: _153  and  _154
REMARK   62  A    between atoms: _157  and  _159
REMARK   63  A    between atoms: _159  and  _160
REMARK   64  A    between atoms: _159  and  _162
REMARK   65  A    between atoms: _162  and  _163
REMARK   66  A    between atoms: _166  and  _168
REMARK   67  A    between atoms: _168  and  _169
REMARK   68  A    between atoms: _168  and  _171
REMARK   69  A    between atoms: _171  and  _172
REMARK   70  A    between atoms: _172  and  _173
REMARK   71  A    between atoms: _175  and  _177
REMARK   72  A    between atoms: _177  and  _178
REMARK   73  A    between atoms: _177  and  _180
REMARK   74  A    between atoms: _180  and  _181
REMARK   75  A    between atoms: _186  and  _187
REMARK   76  A    between atoms: _189  and  _191
REMARK   77  A    between atoms: _191  and  _192
REMARK   78  A    between atoms: _191  and  _194
REMARK   79  A    between atoms: _194  and  _195
REMARK   80  A    between atoms: _198  and  _200
REMARK   81  A    between atoms: _200  and  _201
REMARK   82  A    between atoms: _200  and  _203
REMARK   83  A    between atoms: _206  and  _208
REMARK   84  A    between atoms: _208  and  _209
REMARK   85  A    between atoms: _212  and  _214
REMARK   86  A    between atoms: _214  and  _215
REMARK   87  A    between atoms: _214  and  _217
REMARK   88  A    between atoms: _217  and  _218
REMARK   89  A    between atoms: _221  and  _223
REMARK   90  A    between atoms: _223  and  _224
REMARK   91  A    between atoms: _223  and  _226
REMARK   92  A    between atoms: _229  and  _231
REMARK   93  A    between atoms: _231  and  _232
REMARK   94  A    between atoms: _231  and  _234
REMARK   95  A    between atoms: _234  and  _235
REMARK   96  A    between atoms: _238  and  _240
REMARK   97  A    between atoms: _240  and  _241
REMARK   98  A    between atoms: _240  and  _243
REMARK   99  A    between atoms: _243  and  _244
REMARK  100  A    between atoms: _250  and  _252
REMARK  101  A    between atoms: _252  and  _253
REMARK  102  A    between atoms: _252  and  _255
REMARK  103  A    between atoms: _255  and  _256
REMARK  104  A    between atoms: _259  and  _261
REMARK  105  A    between atoms: _261  and  _262
REMARK  106  A    between atoms: _261  and  _264
REMARK  107  A    between atoms: _266  and  _268
REMARK  108  A    between atoms: _268  and  _269
REMARK  109  A    between atoms: _268  and  _271
REMARK  110  A    between atoms: _271  and  _272
REMARK  111  A    between atoms: _277  and  _278
REMARK  112  A    between atoms: _280  and  _282
REMARK  113  A    between atoms: _282  and  _283
REMARK  114  A    between atoms: _282  and  _285
REMARK  115  A    between atoms: _285  and  _286
REMARK  116  A    between atoms: _291  and  _292
REMARK  117  A    between atoms: _294  and  _296
REMARK  118  A    between atoms: _296  and  _297
REMARK  119  A    between atoms: _296  and  _299
REMARK  120  A    between atoms: _299  and  _300
REMARK  121  A    between atoms: _303  and  _305
REMARK  122  A    between atoms: _305  and  _306
REMARK  123  A    between atoms: _305  and  _308
REMARK  124  A    between atoms: _308  and  _309
REMARK  125  A    between atoms: _312  and  _314
REMARK  126  A    between atoms: _314  and  _315
REMARK  127  A    between atoms: _314  and  _317
REMARK  128  A    between atoms: _317  and  _318
REMARK  129  A    between atoms: _320  and  _322
REMARK  130  A    between atoms: _322  and  _323
REMARK  131  A    between atoms: _322  and  _325
REMARK  132  A    between atoms: _325  and  _326
REMARK  133  A    between atoms: _326  and  _327
REMARK  134  A    between atoms: _327  and  _328
REMARK  135  A    between atoms: _337  and  _339
REMARK  136  A    between atoms: _339  and  _340
REMARK  137  A    between atoms: _342  and  _344
REMARK  138  A    between atoms: _344  and  _345
REMARK  139  A    between atoms: _344  and  _347
REMARK  140  A    between atoms: _350  and  _352
REMARK  141  A    between atoms: _352  and  _353
REMARK  142  A    between atoms: _352  and  _355
REMARK  143  A    between atoms: _355  and  _356
REMARK  144  A    between atoms: _359  and  _361
REMARK  145  A    between atoms: _361  and  _362
REMARK  146  A    between atoms: _364  and  _366
REMARK  147  A    between atoms: _366  and  _367
REMARK  148  A    between atoms: _366  and  _369
REMARK  149  A    between atoms: _369  and  _370
REMARK  150  A    between atoms: _373  and  _375
REMARK  151  A    between atoms: _375  and  _376
REMARK  152  A    between atoms: _375  and  _378
REMARK  153  A    between atoms: _378  and  _379
REMARK  154  A    between atoms: _379  and  _380
REMARK  155  A    between atoms: _385  and  _387
REMARK  156  A    between atoms: _387  and  _388
REMARK  157  A    between atoms: _390  and  _392
REMARK  158  A    between atoms: _392  and  _393
REMARK  159  A    between atoms: _392  and  _395
REMARK  160  A    between atoms: _395  and  _396
REMARK  161  A    between atoms: _402  and  _404
REMARK  162  A    between atoms: _404  and  _405
REMARK  163  A    between atoms: _407  and  _409
REMARK  164  A    between atoms: _409  and  _410
REMARK  165  A    between atoms: _409  and  _412
REMARK  166  A    between atoms: _412  and  _413
REMARK  167  A    between atoms: _416  and  _418
REMARK  168  A    between atoms: _418  and  _419
REMARK  169  A    between atoms: _418  and  _421
REMARK  170  A    between atoms: _421  and  _422
REMARK  171  A    between atoms: _424  and  _426
REMARK  172  A    between atoms: _426  and  _427
REMARK  173  A    between atoms: _426  and  _429
REMARK  174  A    between atoms: _429  and  _430
REMARK  175  A    between atoms: _430  and  _431
REMARK  176  A    between atoms: _436  and  _438
REMARK  177  A    between atoms: _438  and  _439
REMARK  178  A    between atoms: _438  and  _441
REMARK  179  A    between atoms: _441  and  _442
REMARK  180  A    between atoms: _445  and  _447
REMARK  181  A    between atoms: _447  and  _448
REMARK  182  A    between atoms: _447  and  _450
REMARK  183  A    between atoms: _450  and  _451
REMARK  184  A    between atoms: _453  and  _455
REMARK  185  A    between atoms: _455  and  _456
REMARK  186  A    between atoms: _458  and  _460
REMARK  187  A    between atoms: _460  and  _461
REMARK  188  A    between atoms: _460  and  _463
REMARK  189  A    between atoms: _463  and  _464
REMARK  190  A    between atoms: _466  and  _468
REMARK  191  A    between atoms: _468  and  _469
REMARK  192  A    between atoms: _472  and  _474
REMARK  193  A    between atoms: _474  and  _475
REMARK  194  A    between atoms: _474  and  _477
REMARK  195  A    between atoms: _477  and  _478
REMARK  196  A    between atoms: _481  and  _483
REMARK  197  A    between atoms: _483  and  _484
REMARK  198  A    between atoms: _483  and  _486
REMARK  199  A    between atoms: _489  and  _491
REMARK  200  A    between atoms: _491  and  _492
REMARK  201  A    between atoms: _491  and  _494
REMARK  202  A    between atoms: _494  and  _495
REMARK  203  A    between atoms: _495  and  _496
REMARK  204  A    between atoms: _496  and  _497
REMARK  205  A    between atoms: _497  and  _498
REMARK  206  A    between atoms: _502  and  _504
REMARK  207  A    between atoms: _504  and  _505
REMARK  208  A    between atoms: _504  and  _507
REMARK  209  A    between atoms: _511  and  _512
REMARK  210  A    between atoms: _517  and  _519
REMARK  211  A    between atoms: _519  and  _520
REMARK  212  A    between atoms: _519  and  _522
REMARK  213  A    between atoms: _522  and  _523
REMARK  214  A    between atoms: _523  and  _524
REMARK  215  A    between atoms: _529  and  _531
REMARK  216  A    between atoms: _531  and  _532
REMARK  217  A    between atoms: _531  and  _534
REMARK  218  A    between atoms: _534  and  _535
REMARK  219  A    between atoms: _538  and  _540
REMARK  220  A    between atoms: _540  and  _541
REMARK  221  A    between atoms: _540  and  _543
REMARK  222  A    between atoms: _543  and  _544
REMARK                            x       y       z     vdW  Elec       q    Type
REMARK                         _______ _______ _______ _____ _____    ______ ____
ROOT
ATOM      1  O   HOH     1      54.095  31.510   6.932  0.00  0.00    +0.000 OA
ENDROOT
TORSDOF 0
REMARK  Name = ../refined-set-2016/2clh/2clh_pocket.pdb
REMARK  222 active torsions:
REMARK  status: ('A' for Active; 'I' for Inactive)
REMARK    1  A    between atoms: _1  and  _3
REMARK    2  A    between atoms: _3  and  _4
REMARK    3  A    between atoms: _3  and  _6
REMARK    4  A    between atoms: _10  and  _11
REMARK    5  A    between atoms: _16  and  _18
REMARK    6  A    between atoms: _18  and  _19
REMARK    7  A    between atoms: _18  and  _21
REMARK    8  A    between atoms: _21  and  _22
REMARK    9  A    between atoms: _28  and  _30
REMARK   10  A    between atoms: _30  and  _31
REMARK   11  A    between atoms: _30  and  _33
REMARK   12  A    between atoms: _36  and  _38
REMARK   13  A    between atoms: _38  and  _39
REMARK   14  A    between atoms: _38  and  _41
REMARK   15  A    between atoms: _41  and  _42
REMARK   16  A    between atoms: _45  and  _47
REMARK   17  A    between atoms: _47  and  _48
REMARK   18  A    between atoms: _47  and  _50
REMARK   19  A    between atoms: _50  and  _51
REMARK   20  A    between atoms: _54  and  _56
REMARK   21  A    between atoms: _56  and  _57
REMARK   22  A    between atoms: _56  and  _59
REMARK   23  A    between atoms: _59  and  _60
REMARK   24  A    between atoms: _60  and  _61
REMARK   25  A    between atoms: _64  and  _66
REMARK   26  A    between atoms: _66  and  _67
REMARK   27  A    between atoms: _66  and  _69
REMARK   28  A    between atoms: _69  and  _70
REMARK   29  A    between atoms: _73  and  _75
REMARK   30  A    between atoms: _75  and  _76
REMARK   31  A    between atoms: _79  and  _80
REMARK   32  A    between atoms: _85  and  _87
REMARK   33  A    between atoms: _87  and  _88
REMARK   34  A    between atoms: _87  and  _90
REMARK   35  A    between atoms: _90  and  _91
REMARK   36  A    between atoms: _94  and  _96
REMARK   37  A    between atoms: _96  and  _97
REMARK   38  A    between atoms: _100  and  _102
REMARK   39  A    between atoms: _102  and  _103
REMARK   40  A    between atoms: _102  and  _105
REMARK   41  A    between atoms: _105  and  _106
REMARK   42  A    between atoms: _109  and  _111
REMARK   43  A    between atoms: _111  and  _112
REMARK   44  A    between atoms: _114  and  _116
REMARK   45  A    between atoms: _116  and  _117
REMARK   46  A    between atoms: _116  and  _119
REMARK   47  A    between atoms: _119  and  _120
REMARK   48  A    between atoms: _123  and  _125
REMARK   49  A    between atoms: _125  and  _126
REMARK   50  A    between atoms: _125  and  _128
REMARK   51  A    between atoms: _128  and  _129
REMARK   52  A    between atoms: _132  and  _134
REMARK   53  A    between atoms: _134  and  _135
REMARK   54  A    between atoms: _134  and  _137
REMARK   55  A    between atoms: _137  and  _138
REMARK   56  A    between atoms: _143  and  _145
REMARK   57  A    between atoms: _145  and  _146
REMARK   58  A    between atoms: _148  and  _150
REMARK   59  A    between atoms: _150  and  _151
REMARK   60  A    between atoms: _150  and  _153
REMARK   61  A    between atoms: _153  and  _154
REMARK   62  A    between atoms: _157  and  _159
REMARK   63  A    between atoms: _159  and  _160
REMARK   64  A    between atoms: _159  and  _162
REMARK   65  A    between atoms: _162  and  _163
REMARK   66  A    between atoms: _166  and  _168
REMARK   67  A    between atoms: _168  and  _169
REMARK   68  A    between atoms: _168  and  _171
REMARK   69  A    between atoms: _171  and  _172
REMARK   70  A    between atoms: _172  and  _173
REMARK   71  A    between atoms: _175  and  _177
REMARK   72  A    between atoms: _177  and  _178
REMARK   73  A    between atoms: _177  and  _180
REMARK   74  A    between atoms: _180  and  _181
REMARK   75  A    between atoms: _186  and  _187
REMARK   76  A    between atoms: _189  and  _191
REMARK   77  A    between atoms: _191  and  _192
REMARK   78  A    between atoms: _191  and  _194
REMARK   79  A    between atoms: _194  and  _195
REMARK   80  A    between atoms: _198  and  _200
REMARK   81  A    between atoms: _200  and  _201
REMARK   82  A    between atoms: _200  and  _203
REMARK   83  A    between atoms: _206  and  _208
REMARK   84  A    between atoms: _208  and  _209
REMARK   85  A    between atoms: _212  and  _214
REMARK   86  A    between atoms: _214  and  _215
REMARK   87  A    between atoms: _214  and  _217
REMARK   88  A    between atoms: _217  and  _218
REMARK   89  A    between atoms: _221  and  _223
REMARK   90  A    between atoms: _223  and  _224
REMARK   91  A    between atoms: _223  and  _226
REMARK   92  A    between atoms: _229  and  _231
REMARK   93  A    between atoms: _231  and  _232
REMARK   94  A    between atoms: _231  and  _234
REMARK   95  A    between atoms: _234  and  _235
REMARK   96  A    between atoms: _238  and  _240
REMARK   97  A    between atoms: _240  and  _241
REMARK   98  A    between atoms: _240  and  _243
REMARK   99  A    between atoms: _243  and  _244
REMARK  100  A    between atoms: _250  and  _252
REMARK  101  A    between atoms: _252  and  _253
REMARK  102  A    between atoms: _252  and  _255
REMARK  103  A    between atoms: _255  and  _256
REMARK  104  A    between atoms: _259  and  _261
REMARK  105  A    between atoms: _261  and  _262
REMARK  106  A    between atoms: _261  and  _264
REMARK  107  A    between atoms: _266  and  _268
REMARK  108  A    between atoms: _268  and  _269
REMARK  109  A    between atoms: _268  and  _271
REMARK  110  A    between atoms: _271  and  _272
REMARK  111  A    between atoms: _277  and  _278
REMARK  112  A    between atoms: _280  and  _282
REMARK  113  A    between atoms: _282  and  _283
REMARK  114  A    between atoms: _282  and  _285
REMARK  115  A    between atoms: _285  and  _286
REMARK  116  A    between atoms: _291  and  _292
REMARK  117  A    between atoms: _294  and  _296
REMARK  118  A    between atoms: _296  and  _297
REMARK  119  A    between atoms: _296  and  _299
REMARK  120  A    between atoms: _299  and  _300
REMARK  121  A    between atoms: _303  and  _305
REMARK  122  A    between atoms: _305  and  _306
REMARK  123  A    between atoms: _305  and  _308
REMARK  124  A    between atoms: _308  and  _309
REMARK  125  A    between atoms: _312  and  _314
REMARK  126  A    between atoms: _314  and  _315
REMARK  127  A    between atoms: _314  and  _317
REMARK  128  A    between atoms: _317  and  _318
REMARK  129  A    between atoms: _320  and  _322
REMARK  130  A    between atoms: _322  and  _323
REMARK  131  A    between atoms: _322  and  _325
REMARK  132  A    between atoms: _325  and  _326
REMARK  133  A    between atoms: _326  and  _327
REMARK  134  A    between atoms: _327  and  _328
REMARK  135  A    between atoms: _337  and  _339
REMARK  136  A    between atoms: _339  and  _340
REMARK  137  A    between atoms: _342  and  _344
REMARK  138  A    between atoms: _344  and  _345
REMARK  139  A    between atoms: _344  and  _347
REMARK  140  A    between atoms: _350  and  _352
REMARK  141  A    between atoms: _352  and  _353
REMARK  142  A    between atoms: _352  and  _355
REMARK  143  A    between atoms: _355  and  _356
REMARK  144  A    between atoms: _359  and  _361
REMARK  145  A    between atoms: _361  and  _362
REMARK  146  A    between atoms: _364  and  _366
REMARK  147  A    between atoms: _366  and  _367
REMARK  148  A    between atoms: _366  and  _369
REMARK  149  A    between atoms: _369  and  _370
REMARK  150  A    between atoms: _373  and  _375
REMARK  151  A    between atoms: _375  and  _376
REMARK  152  A    between atoms: _375  and  _378
REMARK  153  A    between atoms: _378  and  _379
REMARK  154  A    between atoms: _379  and  _380
REMARK  155  A    between atoms: _385  and  _387
REMARK  156  A    between atoms: _387  and  _388
REMARK  157  A    between atoms: _390  and  _392
REMARK  158  A    between atoms: _392  and  _393
REMARK  159  A    between atoms: _392  and  _395
REMARK  160  A    between atoms: _395  and  _396
REMARK  161  A    between atoms: _402  and  _404
REMARK  162  A    between atoms: _404  and  _405
REMARK  163  A    between atoms: _407  and  _409
REMARK  164  A    between atoms: _409  and  _410
REMARK  165  A    between atoms: _409  and  _412
REMARK  166  A    between atoms: _412  and  _413
REMARK  167  A    between atoms: _416  and  _418
REMARK  168  A    between atoms: _418  and  _419
REMARK  169  A    between atoms: _418  and  _421
REMARK  170  A    between atoms: _421  and  _422
REMARK  171  A    between atoms: _424  and  _426
REMARK  172  A    between atoms: _426  and  _427
REMARK  173  A    between atoms: _426  and  _429
REMARK  174  A    between atoms: _429  and  _430
REMARK  175  A    between atoms: _430  and  _431
REMARK  176  A    between atoms: _436  and  _438
REMARK  177  A    between atoms: _438  and  _439
REMARK  178  A    between atoms: _438  and  _441
REMARK  179  A    between atoms: _441  and  _442
REMARK  180  A    between atoms: _445  and  _447
REMARK  181  A    between atoms: _447  and  _448
REMARK  182  A    between atoms: _447  and  _450
REMARK  183  A    between atoms: _450  and  _451
REMARK  184  A    between atoms: _453  and  _455
REMARK  185  A    between atoms: _455  and  _456
REMARK  186  A    between atoms: _458  and  _460
REMARK  187  A    between atoms: _460  and  _461
REMARK  188  A    between atoms: _460  and  _463
REMARK  189  A    between atoms: _463  and  _464
REMARK  190  A    between atoms: _466  and  _468
REMARK  191  A    between atoms: _468  and  _469
REMARK  192  A    between atoms: _472  and  _474
REMARK  193  A    between atoms: _474  and  _475
REMARK  194  A    between atoms: _474  and  _477
REMARK  195  A    between atoms: _477  and  _478
REMARK  196  A    between atoms: _481  and  _483
REMARK  197  A    between atoms: _483  and  _484
REMARK  198  A    between atoms: _483  and  _486
REMARK  199  A    between atoms: _489  and  _491
REMARK  200  A    between atoms: _491  and  _492
REMARK  201  A    between atoms: _491  and  _494
REMARK  202  A    between atoms: _494  and  _495
REMARK  203  A    between atoms: _495  and  _496
REMARK  204  A    between atoms: _496  and  _497
REMARK  205  A    between atoms: _497  and  _498
REMARK  206  A    between atoms: _502  and  _504
REMARK  207  A    between atoms: _504  and  _505
REMARK  208  A    between atoms: _504  and  _507
REMARK  209  A    between atoms: _511  and  _512
REMARK  210  A    between atoms: _517  and  _519
REMARK  211  A    between atoms: _519  and  _520
REMARK  212  A    between atoms: _519  and  _522
REMARK  213  A    between atoms: _522  and  _523
REMARK  214  A    between atoms: _523  and  _524
REMARK  215  A    between atoms: _529  and  _531
REMARK  216  A    between atoms: _531  and  _532
REMARK  217  A    between atoms: _531  and  _534
REMARK  218  A    between atoms: _534  and  _535
REMARK  219  A    between atoms: _538  and  _540
REMARK  220  A    between atoms: _540  and  _541
REMARK  221  A    between atoms: _540  and  _543
REMARK  222  A    between atoms: _543  and  _544
REMARK                            x       y       z     vdW  Elec       q    Type
REMARK                         _______ _______ _______ _____ _____    ______ ____
ROOT
ATOM      1  O   HOH     1      49.721  28.815   1.769  0.00  0.00    +0.000 OA
ENDROOT
TORSDOF 0
REMARK  Name = ../refined-set-2016/2clh/2clh_pocket.pdb
REMARK  222 active torsions:
REMARK  status: ('A' for Active; 'I' for Inactive)
REMARK    1  A    between atoms: _1  and  _3
REMARK    2  A    between atoms: _3  and  _4
REMARK    3  A    between atoms: _3  and  _6
REMARK    4  A    between atoms: _10  and  _11
REMARK    5  A    between atoms: _16  and  _18
REMARK    6  A    between atoms: _18  and  _19
REMARK    7  A    between atoms: _18  and  _21
REMARK    8  A    between atoms: _21  and  _22
REMARK    9  A    between atoms: _28  and  _30
REMARK   10  A    between atoms: _30  and  _31
REMARK   11  A    between atoms: _30  and  _33
REMARK   12  A    between atoms: _36  and  _38
REMARK   13  A    between atoms: _38  and  _39
REMARK   14  A    between atoms: _38  and  _41
REMARK   15  A    between atoms: _41  and  _42
REMARK   16  A    between atoms: _45  and  _47
REMARK   17  A    between atoms: _47  and  _48
REMARK   18  A    between atoms: _47  and  _50
REMARK   19  A    between atoms: _50  and  _51
REMARK   20  A    between atoms: _54  and  _56
REMARK   21  A    between atoms: _56  and  _57
REMARK   22  A    between atoms: _56  and  _59
REMARK   23  A    between atoms: _59  and  _60
REMARK   24  A    between atoms: _60  and  _61
REMARK   25  A    between atoms: _64  and  _66
REMARK   26  A    between atoms: _66  and  _67
REMARK   27  A    between atoms: _66  and  _69
REMARK   28  A    between atoms: _69  and  _70
REMARK   29  A    between atoms: _73  and  _75
REMARK   30  A    between atoms: _75  and  _76
REMARK   31  A    between atoms: _79  and  _80
REMARK   32  A    between atoms: _85  and  _87
REMARK   33  A    between atoms: _87  and  _88
REMARK   34  A    between atoms: _87  and  _90
REMARK   35  A    between atoms: _90  and  _91
REMARK   36  A    between atoms: _94  and  _96
REMARK   37  A    between atoms: _96  and  _97
REMARK   38  A    between atoms: _100  and  _102
REMARK   39  A    between atoms: _102  and  _103
REMARK   40  A    between atoms: _102  and  _105
REMARK   41  A    between atoms: _105  and  _106
REMARK   42  A    between atoms: _109  and  _111
REMARK   43  A    between atoms: _111  and  _112
REMARK   44  A    between atoms: _114  and  _116
REMARK   45  A    between atoms: _116  and  _117
REMARK   46  A    between atoms: _116  and  _119
REMARK   47  A    between atoms: _119  and  _120
REMARK   48  A    between atoms: _123  and  _125
REMARK   49  A    between atoms: _125  and  _126
REMARK   50  A    between atoms: _125  and  _128
REMARK   51  A    between atoms: _128  and  _129
REMARK   52  A    between atoms: _132  and  _134
REMARK   53  A    between atoms: _134  and  _135
REMARK   54  A    between atoms: _134  and  _137
REMARK   55  A    between atoms: _137  and  _138
REMARK   56  A    between atoms: _143  and  _145
REMARK   57  A    between atoms: _145  and  _146
REMARK   58  A    between atoms: _148  and  _150
REMARK   59  A    between atoms: _150  and  _151
REMARK   60  A    between atoms: _150  and  _153
REMARK   61  A    between atoms: _153  and  _154
REMARK   62  A    between atoms: _157  and  _159
REMARK   63  A    between atoms: _159  and  _160
REMARK   64  A    between atoms: _159  and  _162
REMARK   65  A    between atoms: _162  and  _163
REMARK   66  A    between atoms: _166  and  _168
REMARK   67  A    between atoms: _168  and  _169
REMARK   68  A    between atoms: _168  and  _171
REMARK   69  A    between atoms: _171  and  _172
REMARK   70  A    between atoms: _172  and  _173
REMARK   71  A    between atoms: _175  and  _177
REMARK   72  A    between atoms: _177  and  _178
REMARK   73  A    between atoms: _177  and  _180
REMARK   74  A    between atoms: _180  and  _181
REMARK   75  A    between atoms: _186  and  _187
REMARK   76  A    between atoms: _189  and  _191
REMARK   77  A    between atoms: _191  and  _192
REMARK   78  A    between atoms: _191  and  _194
REMARK   79  A    between atoms: _194  and  _195
REMARK   80  A    between atoms: _198  and  _200
REMARK   81  A    between atoms: _200  and  _201
REMARK   82  A    between atoms: _200  and  _203
REMARK   83  A    between atoms: _206  and  _208
REMARK   84  A    between atoms: _208  and  _209
REMARK   85  A    between atoms: _212  and  _214
REMARK   86  A    between atoms: _214  and  _215
REMARK   87  A    between atoms: _214  and  _217
REMARK   88  A    between atoms: _217  and  _218
REMARK   89  A    between atoms: _221  and  _223
REMARK   90  A    between atoms: _223  and  _224
REMARK   91  A    between atoms: _223  and  _226
REMARK   92  A    between atoms: _229  and  _231
REMARK   93  A    between atoms: _231  and  _232
REMARK   94  A    between atoms: _231  and  _234
REMARK   95  A    between atoms: _234  and  _235
REMARK   96  A    between atoms: _238  and  _240
REMARK   97  A    between atoms: _240  and  _241
REMARK   98  A    between atoms: _240  and  _243
REMARK   99  A    between atoms: _243  and  _244
REMARK  100  A    between atoms: _250  and  _252
REMARK  101  A    between atoms: _252  and  _253
REMARK  102  A    between atoms: _252  and  _255
REMARK  103  A    between atoms: _255  and  _256
REMARK  104  A    between atoms: _259  and  _261
REMARK  105  A    between atoms: _261  and  _262
REMARK  106  A    between atoms: _261  and  _264
REMARK  107  A    between atoms: _266  and  _268
REMARK  108  A    between atoms: _268  and  _269
REMARK  109  A    between atoms: _268  and  _271
REMARK  110  A    between atoms: _271  and  _272
REMARK  111  A    between atoms: _277  and  _278
REMARK  112  A    between atoms: _280  and  _282
REMARK  113  A    between atoms: _282  and  _283
REMARK  114  A    between atoms: _282  and  _285
REMARK  115  A    between atoms: _285  and  _286
REMARK  116  A    between atoms: _291  and  _292
REMARK  117  A    between atoms: _294  and  _296
REMARK  118  A    between atoms: _296  and  _297
REMARK  119  A    between atoms: _296  and  _299
REMARK  120  A    between atoms: _299  and  _300
REMARK  121  A    between atoms: _303  and  _305
REMARK  122  A    between atoms: _305  and  _306
REMARK  123  A    between atoms: _305  and  _308
REMARK  124  A    between atoms: _308  and  _309
REMARK  125  A    between atoms: _312  and  _314
REMARK  126  A    between atoms: _314  and  _315
REMARK  127  A    between atoms: _314  and  _317
REMARK  128  A    between atoms: _317  and  _318
REMARK  129  A    between atoms: _320  and  _322
REMARK  130  A    between atoms: _322  and  _323
REMARK  131  A    between atoms: _322  and  _325
REMARK  132  A    between atoms: _325  and  _326
REMARK  133  A    between atoms: _326  and  _327
REMARK  134  A    between atoms: _327  and  _328
REMARK  135  A    between atoms: _337  and  _339
REMARK  136  A    between atoms: _339  and  _340
REMARK  137  A    between atoms: _342  and  _344
REMARK  138  A    between atoms: _344  and  _345
REMARK  139  A    between atoms: _344  and  _347
REMARK  140  A    between atoms: _350  and  _352
REMARK  141  A    between atoms: _352  and  _353
REMARK  142  A    between atoms: _352  and  _355
REMARK  143  A    between atoms: _355  and  _356
REMARK  144  A    between atoms: _359  and  _361
REMARK  145  A    between atoms: _361  and  _362
REMARK  146  A    between atoms: _364  and  _366
REMARK  147  A    between atoms: _366  and  _367
REMARK  148  A    between atoms: _366  and  _369
REMARK  149  A    between atoms: _369  and  _370
REMARK  150  A    between atoms: _373  and  _375
REMARK  151  A    between atoms: _375  and  _376
REMARK  152  A    between atoms: _375  and  _378
REMARK  153  A    between atoms: _378  and  _379
REMARK  154  A    between atoms: _379  and  _380
REMARK  155  A    between atoms: _385  and  _387
REMARK  156  A    between atoms: _387  and  _388
REMARK  157  A    between atoms: _390  and  _392
REMARK  158  A    between atoms: _392  and  _393
REMARK  159  A    between atoms: _392  and  _395
REMARK  160  A    between atoms: _395  and  _396
REMARK  161  A    between atoms: _402  and  _404
REMARK  162  A    between atoms: _404  and  _405
REMARK  163  A    between atoms: _407  and  _409
REMARK  164  A    between atoms: _409  and  _410
REMARK  165  A    between atoms: _409  and  _412
REMARK  166  A    between atoms: _412  and  _413
REMARK  167  A    between atoms: _416  and  _418
REMARK  168  A    between atoms: _418  and  _419
REMARK  169  A    between atoms: _418  and  _421
REMARK  170  A    between atoms: _421  and  _422
REMARK  171  A    between atoms: _424  and  _426
REMARK  172  A    between atoms: _426  and  _427
REMARK  173  A    between atoms: _426  and  _429
REMARK  174  A    between atoms: _429  and  _430
REMARK  175  A    between atoms: _430  and  _431
REMARK  176  A    between atoms: _436  and  _438
REMARK  177  A    between atoms: _438  and  _439
REMARK  178  A    between atoms: _438  and  _441
REMARK  179  A    between atoms: _441  and  _442
REMARK  180  A    between atoms: _445  and  _447
REMARK  181  A    between atoms: _447  and  _448
REMARK  182  A    between atoms: _447  and  _450
REMARK  183  A    between atoms: _450  and  _451
REMARK  184  A    between atoms: _453  and  _455
REMARK  185  A    between atoms: _455  and  _456
REMARK  186  A    between atoms: _458  and  _460
REMARK  187  A    between atoms: _460  and  _461
REMARK  188  A    between atoms: _460  and  _463
REMARK  189  A    between atoms: _463  and  _464
REMARK  190  A    between atoms: _466  and  _468
REMARK  191  A    between atoms: _468  and  _469
REMARK  192  A    between atoms: _472  and  _474
REMARK  193  A    between atoms: _474  and  _475
REMARK  194  A    between atoms: _474  and  _477
REMARK  195  A    between atoms: _477  and  _478
REMARK  196  A    between atoms: _481  and  _483
REMARK  197  A    between atoms: _483  and  _484
REMARK  198  A    between atoms: _483  and  _486
REMARK  199  A    between atoms: _489  and  _491
REMARK  200  A    between atoms: _491  and  _492
REMARK  201  A    between atoms: _491  and  _494
REMARK  202  A    between atoms: _494  and  _495
REMARK  203  A    between atoms: _495  and  _496
REMARK  204  A    between atoms: _496  and  _497
REMARK  205  A    between atoms: _497  and  _498
REMARK  206  A    between atoms: _502  and  _504
REMARK  207  A    between atoms: _504  and  _505
REMARK  208  A    between atoms: _504  and  _507
REMARK  209  A    between atoms: _511  and  _512
REMARK  210  A    between atoms: _517  and  _519
REMARK  211  A    between atoms: _519  and  _520
REMARK  212  A    between atoms: _519  and  _522
REMARK  213  A    between atoms: _522  and  _523
REMARK  214  A    between atoms: _523  and  _524
REMARK  215  A    between atoms: _529  and  _531
REMARK  216  A    between atoms: _531  and  _532
REMARK  217  A    between atoms: _531  and  _534
REMARK  218  A    between atoms: _534  and  _535
REMARK  219  A    between atoms: _538  and  _540
REMARK  220  A    between atoms: _540  and  _541
REMARK  221  A    between atoms: _540  and  _543
REMARK  222  A    between atoms: _543  and  _544
REMARK                            x       y       z     vdW  Elec       q    Type
REMARK                         _______ _______ _______ _____ _____    ______ ____
ROOT
ATOM      1  O   HOH     1      56.587  28.961  19.212  0.00  0.00    +0.000 OA
ENDROOT
TORSDOF 0
REMARK  Name = ../refined-set-2016/2clh/2clh_pocket.pdb
REMARK  222 active torsions:
REMARK  status: ('A' for Active; 'I' for Inactive)
REMARK    1  A    between atoms: _1  and  _3
REMARK    2  A    between atoms: _3  and  _4
REMARK    3  A    between atoms: _3  and  _6
REMARK    4  A    between atoms: _10  and  _11
REMARK    5  A    between atoms: _16  and  _18
REMARK    6  A    between atoms: _18  and  _19
REMARK    7  A    between atoms: _18  and  _21
REMARK    8  A    between atoms: _21  and  _22
REMARK    9  A    between atoms: _28  and  _30
REMARK   10  A    between atoms: _30  and  _31
REMARK   11  A    between atoms: _30  and  _33
REMARK   12  A    between atoms: _36  and  _38
REMARK   13  A    between atoms: _38  and  _39
REMARK   14  A    between atoms: _38  and  _41
REMARK   15  A    between atoms: _41  and  _42
REMARK   16  A    between atoms: _45  and  _47
REMARK   17  A    between atoms: _47  and  _48
REMARK   18  A    between atoms: _47  and  _50
REMARK   19  A    between atoms: _50  and  _51
REMARK   20  A    between atoms: _54  and  _56
REMARK   21  A    between atoms: _56  and  _57
REMARK   22  A    between atoms: _56  and  _59
REMARK   23  A    between atoms: _59  and  _60
REMARK   24  A    between atoms: _60  and  _61
REMARK   25  A    between atoms: _64  and  _66
REMARK   26  A    between atoms: _66  and  _67
REMARK   27  A    between atoms: _66  and  _69
REMARK   28  A    between atoms: _69  and  _70
REMARK   29  A    between atoms: _73  and  _75
REMARK   30  A    between atoms: _75  and  _76
REMARK   31  A    between atoms: _79  and  _80
REMARK   32  A    between atoms: _85  and  _87
REMARK   33  A    between atoms: _87  and  _88
REMARK   34  A    between atoms: _87  and  _90
REMARK   35  A    between atoms: _90  and  _91
REMARK   36  A    between atoms: _94  and  _96
REMARK   37  A    between atoms: _96  and  _97
REMARK   38  A    between atoms: _100  and  _102
REMARK   39  A    between atoms: _102  and  _103
REMARK   40  A    between atoms: _102  and  _105
REMARK   41  A    between atoms: _105  and  _106
REMARK   42  A    between atoms: _109  and  _111
REMARK   43  A    between atoms: _111  and  _112
REMARK   44  A    between atoms: _114  and  _116
REMARK   45  A    between atoms: _116  and  _117
REMARK   46  A    between atoms: _116  and  _119
REMARK   47  A    between atoms: _119  and  _120
REMARK   48  A    between atoms: _123  and  _125
REMARK   49  A    between atoms: _125  and  _126
REMARK   50  A    between atoms: _125  and  _128
REMARK   51  A    between atoms: _128  and  _129
REMARK   52  A    between atoms: _132  and  _134
REMARK   53  A    between atoms: _134  and  _135
REMARK   54  A    between atoms: _134  and  _137
REMARK   55  A    between atoms: _137  and  _138
REMARK   56  A    between atoms: _143  and  _145
REMARK   57  A    between atoms: _145  and  _146
REMARK   58  A    between atoms: _148  and  _150
REMARK   59  A    between atoms: _150  and  _151
REMARK   60  A    between atoms: _150  and  _153
REMARK   61  A    between atoms: _153  and  _154
REMARK   62  A    between atoms: _157  and  _159
REMARK   63  A    between atoms: _159  and  _160
REMARK   64  A    between atoms: _159  and  _162
REMARK   65  A    between atoms: _162  and  _163
REMARK   66  A    between atoms: _166  and  _168
REMARK   67  A    between atoms: _168  and  _169
REMARK   68  A    between atoms: _168  and  _171
REMARK   69  A    between atoms: _171  and  _172
REMARK   70  A    between atoms: _172  and  _173
REMARK   71  A    between atoms: _175  and  _177
REMARK   72  A    between atoms: _177  and  _178
REMARK   73  A    between atoms: _177  and  _180
REMARK   74  A    between atoms: _180  and  _181
REMARK   75  A    between atoms: _186  and  _187
REMARK   76  A    between atoms: _189  and  _191
REMARK   77  A    between atoms: _191  and  _192
REMARK   78  A    between atoms: _191  and  _194
REMARK   79  A    between atoms: _194  and  _195
REMARK   80  A    between atoms: _198  and  _200
REMARK   81  A    between atoms: _200  and  _201
REMARK   82  A    between atoms: _200  and  _203
REMARK   83  A    between atoms: _206  and  _208
REMARK   84  A    between atoms: _208  and  _209
REMARK   85  A    between atoms: _212  and  _214
REMARK   86  A    between atoms: _214  and  _215
REMARK   87  A    between atoms: _214  and  _217
REMARK   88  A    between atoms: _217  and  _218
REMARK   89  A    between atoms: _221  and  _223
REMARK   90  A    between atoms: _223  and  _224
REMARK   91  A    between atoms: _223  and  _226
REMARK   92  A    between atoms: _229  and  _231
REMARK   93  A    between atoms: _231  and  _232
REMARK   94  A    between atoms: _231  and  _234
REMARK   95  A    between atoms: _234  and  _235
REMARK   96  A    between atoms: _238  and  _240
REMARK   97  A    between atoms: _240  and  _241
REMARK   98  A    between atoms: _240  and  _243
REMARK   99  A    between atoms: _243  and  _244
REMARK  100  A    between atoms: _250  and  _252
REMARK  101  A    between atoms: _252  and  _253
REMARK  102  A    between atoms: _252  and  _255
REMARK  103  A    between atoms: _255  and  _256
REMARK  104  A    between atoms: _259  and  _261
REMARK  105  A    between atoms: _261  and  _262
REMARK  106  A    between atoms: _261  and  _264
REMARK  107  A    between atoms: _266  and  _268
REMARK  108  A    between atoms: _268  and  _269
REMARK  109  A    between atoms: _268  and  _271
REMARK  110  A    between atoms: _271  and  _272
REMARK  111  A    between atoms: _277  and  _278
REMARK  112  A    between atoms: _280  and  _282
REMARK  113  A    between atoms: _282  and  _283
REMARK  114  A    between atoms: _282  and  _285
REMARK  115  A    between atoms: _285  and  _286
REMARK  116  A    between atoms: _291  and  _292
REMARK  117  A    between atoms: _294  and  _296
REMARK  118  A    between atoms: _296  and  _297
REMARK  119  A    between atoms: _296  and  _299
REMARK  120  A    between atoms: _299  and  _300
REMARK  121  A    between atoms: _303  and  _305
REMARK  122  A    between atoms: _305  and  _306
REMARK  123  A    between atoms: _305  and  _308
REMARK  124  A    between atoms: _308  and  _309
REMARK  125  A    between atoms: _312  and  _314
REMARK  126  A    between atoms: _314  and  _315
REMARK  127  A    between atoms: _314  and  _317
REMARK  128  A    between atoms: _317  and  _318
REMARK  129  A    between atoms: _320  and  _322
REMARK  130  A    between atoms: _322  and  _323
REMARK  131  A    between atoms: _322  and  _325
REMARK  132  A    between atoms: _325  and  _326
REMARK  133  A    between atoms: _326  and  _327
REMARK  134  A    between atoms: _327  and  _328
REMARK  135  A    between atoms: _337  and  _339
REMARK  136  A    between atoms: _339  and  _340
REMARK  137  A    between atoms: _342  and  _344
REMARK  138  A    between atoms: _344  and  _345
REMARK  139  A    between atoms: _344  and  _347
REMARK  140  A    between atoms: _350  and  _352
REMARK  141  A    between atoms: _352  and  _353
REMARK  142  A    between atoms: _352  and  _355
REMARK  143  A    between atoms: _355  and  _356
REMARK  144  A    between atoms: _359  and  _361
REMARK  145  A    between atoms: _361  and  _362
REMARK  146  A    between atoms: _364  and  _366
REMARK  147  A    between atoms: _366  and  _367
REMARK  148  A    between atoms: _366  and  _369
REMARK  149  A    between atoms: _369  and  _370
REMARK  150  A    between atoms: _373  and  _375
REMARK  151  A    between atoms: _375  and  _376
REMARK  152  A    between atoms: _375  and  _378
REMARK  153  A    between atoms: _378  and  _379
REMARK  154  A    between atoms: _379  and  _380
REMARK  155  A    between atoms: _385  and  _387
REMARK  156  A    between atoms: _387  and  _388
REMARK  157  A    between atoms: _390  and  _392
REMARK  158  A    between atoms: _392  and  _393
REMARK  159  A    between atoms: _392  and  _395
REMARK  160  A    between atoms: _395  and  _396
REMARK  161  A    between atoms: _402  and  _404
REMARK  162  A    between atoms: _404  and  _405
REMARK  163  A    between atoms: _407  and  _409
REMARK  164  A    between atoms: _409  and  _410
REMARK  165  A    between atoms: _409  and  _412
REMARK  166  A    between atoms: _412  and  _413
REMARK  167  A    between atoms: _416  and  _418
REMARK  168  A    between atoms: _418  and  _419
REMARK  169  A    between atoms: _418  and  _421
REMARK  170  A    between atoms: _421  and  _422
REMARK  171  A    between atoms: _424  and  _426
REMARK  172  A    between atoms: _426  and  _427
REMARK  173  A    between atoms: _426  and  _429
REMARK  174  A    between atoms: _429  and  _430
REMARK  175  A    between atoms: _430  and  _431
REMARK  176  A    between atoms: _436  and  _438
REMARK  177  A    between atoms: _438  and  _439
REMARK  178  A    between atoms: _438  and  _441
REMARK  179  A    between atoms: _441  and  _442
REMARK  180  A    between atoms: _445  and  _447
REMARK  181  A    between atoms: _447  and  _448
REMARK  182  A    between atoms: _447  and  _450
REMARK  183  A    between atoms: _450  and  _451
REMARK  184  A    between atoms: _453  and  _455
REMARK  185  A    between atoms: _455  and  _456
REMARK  186  A    between atoms: _458  and  _460
REMARK  187  A    between atoms: _460  and  _461
REMARK  188  A    between atoms: _460  and  _463
REMARK  189  A    between atoms: _463  and  _464
REMARK  190  A    between atoms: _466  and  _468
REMARK  191  A    between atoms: _468  and  _469
REMARK  192  A    between atoms: _472  and  _474
REMARK  193  A    between atoms: _474  and  _475
REMARK  194  A    between atoms: _474  and  _477
REMARK  195  A    between atoms: _477  and  _478
REMARK  196  A    between atoms: _481  and  _483
REMARK  197  A    between atoms: _483  and  _484
REMARK  198  A    between atoms: _483  and  _486
REMARK  199  A    between atoms: _489  and  _491
REMARK  200  A    between atoms: _491  and  _492
REMARK  201  A    between atoms: _491  and  _494
REMARK  202  A    between atoms: _494  and  _495
REMARK  203  A    between atoms: _495  and  _496
REMARK  204  A    between atoms: _496  and  _497
REMARK  205  A    between atoms: _497  and  _498
REMARK  206  A    between atoms: _502  and  _504
REMARK  207  A    between atoms: _504  and  _505
REMARK  208  A    between atoms: _504  and  _507
REMARK  209  A    between atoms: _511  and  _512
REMARK  210  A    between atoms: _517  and  _519
REMARK  211  A    between atoms: _519  and  _520
REMARK  212  A    between atoms: _519  and  _522
REMARK  213  A    between atoms: _522  and  _523
REMARK  214  A    between atoms: _523  and  _524
REMARK  215  A    between atoms: _529  and  _531
REMARK  216  A    between atoms: _531  and  _532
REMARK  217  A    between atoms: _531  and  _534
REMARK  218  A    between atoms: _534  and  _535
REMARK  219  A    between atoms: _538  and  _540
REMARK  220  A    between atoms: _540  and  _541
REMARK  221  A    between atoms: _540  and  _543
REMARK  222  A    between atoms: _543  and  _544
REMARK                            x       y       z     vdW  Elec       q    Type
REMARK                         _______ _______ _______ _____ _____    ______ ____
ROOT
ATOM      1  O   HOH     1      49.069  18.292  22.487  0.00  0.00    +0.000 OA
ENDROOT
TORSDOF 0
REMARK  Name = ../refined-set-2016/2clh/2clh_pocket.pdb
REMARK  222 active torsions:
REMARK  status: ('A' for Active; 'I' for Inactive)
REMARK    1  A    between atoms: _1  and  _3
REMARK    2  A    between atoms: _3  and  _4
REMARK    3  A    between atoms: _3  and  _6
REMARK    4  A    between atoms: _10  and  _11
REMARK    5  A    between atoms: _16  and  _18
REMARK    6  A    between atoms: _18  and  _19
REMARK    7  A    between atoms: _18  and  _21
REMARK    8  A    between atoms: _21  and  _22
REMARK    9  A    between atoms: _28  and  _30
REMARK   10  A    between atoms: _30  and  _31
REMARK   11  A    between atoms: _30  and  _33
REMARK   12  A    between atoms: _36  and  _38
REMARK   13  A    between atoms: _38  and  _39
REMARK   14  A    between atoms: _38  and  _41
REMARK   15  A    between atoms: _41  and  _42
REMARK   16  A    between atoms: _45  and  _47
REMARK   17  A    between atoms: _47  and  _48
REMARK   18  A    between atoms: _47  and  _50
REMARK   19  A    between atoms: _50  and  _51
REMARK   20  A    between atoms: _54  and  _56
REMARK   21  A    between atoms: _56  and  _57
REMARK   22  A    between atoms: _56  and  _59
REMARK   23  A    between atoms: _59  and  _60
REMARK   24  A    between atoms: _60  and  _61
REMARK   25  A    between atoms: _64  and  _66
REMARK   26  A    between atoms: _66  and  _67
REMARK   27  A    between atoms: _66  and  _69
REMARK   28  A    between atoms: _69  and  _70
REMARK   29  A    between atoms: _73  and  _75
REMARK   30  A    between atoms: _75  and  _76
REMARK   31  A    between atoms: _79  and  _80
REMARK   32  A    between atoms: _85  and  _87
REMARK   33  A    between atoms: _87  and  _88
REMARK   34  A    between atoms: _87  and  _90
REMARK   35  A    between atoms: _90  and  _91
REMARK   36  A    between atoms: _94  and  _96
REMARK   37  A    between atoms: _96  and  _97
REMARK   38  A    between atoms: _100  and  _102
REMARK   39  A    between atoms: _102  and  _103
REMARK   40  A    between atoms: _102  and  _105
REMARK   41  A    between atoms: _105  and  _106
REMARK   42  A    between atoms: _109  and  _111
REMARK   43  A    between atoms: _111  and  _112
REMARK   44  A    between atoms: _114  and  _116
REMARK   45  A    between atoms: _116  and  _117
REMARK   46  A    between atoms: _116  and  _119
REMARK   47  A    between atoms: _119  and  _120
REMARK   48  A    between atoms: _123  and  _125
REMARK   49  A    between atoms: _125  and  _126
REMARK   50  A    between atoms: _125  and  _128
REMARK   51  A    between atoms: _128  and  _129
REMARK   52  A    between atoms: _132  and  _134
REMARK   53  A    between atoms: _134  and  _135
REMARK   54  A    between atoms: _134  and  _137
REMARK   55  A    between atoms: _137  and  _138
REMARK   56  A    between atoms: _143  and  _145
REMARK   57  A    between atoms: _145  and  _146
REMARK   58  A    between atoms: _148  and  _150
REMARK   59  A    between atoms: _150  and  _151
REMARK   60  A    between atoms: _150  and  _153
REMARK   61  A    between atoms: _153  and  _154
REMARK   62  A    between atoms: _157  and  _159
REMARK   63  A    between atoms: _159  and  _160
REMARK   64  A    between atoms: _159  and  _162
REMARK   65  A    between atoms: _162  and  _163
REMARK   66  A    between atoms: _166  and  _168
REMARK   67  A    between atoms: _168  and  _169
REMARK   68  A    between atoms: _168  and  _171
REMARK   69  A    between atoms: _171  and  _172
REMARK   70  A    between atoms: _172  and  _173
REMARK   71  A    between atoms: _175  and  _177
REMARK   72  A    between atoms: _177  and  _178
REMARK   73  A    between atoms: _177  and  _180
REMARK   74  A    between atoms: _180  and  _181
REMARK   75  A    between atoms: _186  and  _187
REMARK   76  A    between atoms: _189  and  _191
REMARK   77  A    between atoms: _191  and  _192
REMARK   78  A    between atoms: _191  and  _194
REMARK   79  A    between atoms: _194  and  _195
REMARK   80  A    between atoms: _198  and  _200
REMARK   81  A    between atoms: _200  and  _201
REMARK   82  A    between atoms: _200  and  _203
REMARK   83  A    between atoms: _206  and  _208
REMARK   84  A    between atoms: _208  and  _209
REMARK   85  A    between atoms: _212  and  _214
REMARK   86  A    between atoms: _214  and  _215
REMARK   87  A    between atoms: _214  and  _217
REMARK   88  A    between atoms: _217  and  _218
REMARK   89  A    between atoms: _221  and  _223
REMARK   90  A    between atoms: _223  and  _224
REMARK   91  A    between atoms: _223  and  _226
REMARK   92  A    between atoms: _229  and  _231
REMARK   93  A    between atoms: _231  and  _232
REMARK   94  A    between atoms: _231  and  _234
REMARK   95  A    between atoms: _234  and  _235
REMARK   96  A    between atoms: _238  and  _240
REMARK   97  A    between atoms: _240  and  _241
REMARK   98  A    between atoms: _240  and  _243
REMARK   99  A    between atoms: _243  and  _244
REMARK  100  A    between atoms: _250  and  _252
REMARK  101  A    between atoms: _252  and  _253
REMARK  102  A    between atoms: _252  and  _255
REMARK  103  A    between atoms: _255  and  _256
REMARK  104  A    between atoms: _259  and  _261
REMARK  105  A    between atoms: _261  and  _262
REMARK  106  A    between atoms: _261  and  _264
REMARK  107  A    between atoms: _266  and  _268
REMARK  108  A    between atoms: _268  and  _269
REMARK  109  A    between atoms: _268  and  _271
REMARK  110  A    between atoms: _271  and  _272
REMARK  111  A    between atoms: _277  and  _278
REMARK  112  A    between atoms: _280  and  _282
REMARK  113  A    between atoms: _282  and  _283
REMARK  114  A    between atoms: _282  and  _285
REMARK  115  A    between atoms: _285  and  _286
REMARK  116  A    between atoms: _291  and  _292
REMARK  117  A    between atoms: _294  and  _296
REMARK  118  A    between atoms: _296  and  _297
REMARK  119  A    between atoms: _296  and  _299
REMARK  120  A    between atoms: _299  and  _300
REMARK  121  A    between atoms: _303  and  _305
REMARK  122  A    between atoms: _305  and  _306
REMARK  123  A    between atoms: _305  and  _308
REMARK  124  A    between atoms: _308  and  _309
REMARK  125  A    between atoms: _312  and  _314
REMARK  126  A    between atoms: _314  and  _315
REMARK  127  A    between atoms: _314  and  _317
REMARK  128  A    between atoms: _317  and  _318
REMARK  129  A    between atoms: _320  and  _322
REMARK  130  A    between atoms: _322  and  _323
REMARK  131  A    between atoms: _322  and  _325
REMARK  132  A    between atoms: _325  and  _326
REMARK  133  A    between atoms: _326  and  _327
REMARK  134  A    between atoms: _327  and  _328
REMARK  135  A    between atoms: _337  and  _339
REMARK  136  A    between atoms: _339  and  _340
REMARK  137  A    between atoms: _342  and  _344
REMARK  138  A    between atoms: _344  and  _345
REMARK  139  A    between atoms: _344  and  _347
REMARK  140  A    between atoms: _350  and  _352
REMARK  141  A    between atoms: _352  and  _353
REMARK  142  A    between atoms: _352  and  _355
REMARK  143  A    between atoms: _355  and  _356
REMARK  144  A    between atoms: _359  and  _361
REMARK  145  A    between atoms: _361  and  _362
REMARK  146  A    between atoms: _364  and  _366
REMARK  147  A    between atoms: _366  and  _367
REMARK  148  A    between atoms: _366  and  _369
REMARK  149  A    between atoms: _369  and  _370
REMARK  150  A    between atoms: _373  and  _375
REMARK  151  A    between atoms: _375  and  _376
REMARK  152  A    between atoms: _375  and  _378
REMARK  153  A    between atoms: _378  and  _379
REMARK  154  A    between atoms: _379  and  _380
REMARK  155  A    between atoms: _385  and  _387
REMARK  156  A    between atoms: _387  and  _388
REMARK  157  A    between atoms: _390  and  _392
REMARK  158  A    between atoms: _392  and  _393
REMARK  159  A    between atoms: _392  and  _395
REMARK  160  A    between atoms: _395  and  _396
REMARK  161  A    between atoms: _402  and  _404
REMARK  162  A    between atoms: _404  and  _405
REMARK  163  A    between atoms: _407  and  _409
REMARK  164  A    between atoms: _409  and  _410
REMARK  165  A    between atoms: _409  and  _412
REMARK  166  A    between atoms: _412  and  _413
REMARK  167  A    between atoms: _416  and  _418
REMARK  168  A    between atoms: _418  and  _419
REMARK  169  A    between atoms: _418  and  _421
REMARK  170  A    between atoms: _421  and  _422
REMARK  171  A    between atoms: _424  and  _426
REMARK  172  A    between atoms: _426  and  _427
REMARK  173  A    between atoms: _426  and  _429
REMARK  174  A    between atoms: _429  and  _430
REMARK  175  A    between atoms: _430  and  _431
REMARK  176  A    between atoms: _436  and  _438
REMARK  177  A    between atoms: _438  and  _439
REMARK  178  A    between atoms: _438  and  _441
REMARK  179  A    between atoms: _441  and  _442
REMARK  180  A    between atoms: _445  and  _447
REMARK  181  A    between atoms: _447  and  _448
REMARK  182  A    between atoms: _447  and  _450
REMARK  183  A    between atoms: _450  and  _451
REMARK  184  A    between atoms: _453  and  _455
REMARK  185  A    between atoms: _455  and  _456
REMARK  186  A    between atoms: _458  and  _460
REMARK  187  A    between atoms: _460  and  _461
REMARK  188  A    between atoms: _460  and  _463
REMARK  189  A    between atoms: _463  and  _464
REMARK  190  A    between atoms: _466  and  _468
REMARK  191  A    between atoms: _468  and  _469
REMARK  192  A    between atoms: _472  and  _474
REMARK  193  A    between atoms: _474  and  _475
REMARK  194  A    between atoms: _474  and  _477
REMARK  195  A    between atoms: _477  and  _478
REMARK  196  A    between atoms: _481  and  _483
REMARK  197  A    between atoms: _483  and  _484
REMARK  198  A    between atoms: _483  and  _486
REMARK  199  A    between atoms: _489  and  _491
REMARK  200  A    between atoms: _491  and  _492
REMARK  201  A    between atoms: _491  and  _494
REMARK  202  A    between atoms: _494  and  _495
REMARK  203  A    between atoms: _495  and  _496
REMARK  204  A    between atoms: _496  and  _497
REMARK  205  A    between atoms: _497  and  _498
REMARK  206  A    between atoms: _502  and  _504
REMARK  207  A    between atoms: _504  and  _505
REMARK  208  A    between atoms: _504  and  _507
REMARK  209  A    between atoms: _511  and  _512
REMARK  210  A    between atoms: _517  and  _519
REMARK  211  A    between atoms: _519  and  _520
REMARK  212  A    between atoms: _519  and  _522
REMARK  213  A    between atoms: _522  and  _523
REMARK  214  A    between atoms: _523  and  _524
REMARK  215  A    between atoms: _529  and  _531
REMARK  216  A    between atoms: _531  and  _532
REMARK  217  A    between atoms: _531  and  _534
REMARK  218  A    between atoms: _534  and  _535
REMARK  219  A    between atoms: _538  and  _540
REMARK  220  A    between atoms: _540  and  _541
REMARK  221  A    between atoms: _540  and  _543
REMARK  222  A    between atoms: _543  and  _544
REMARK                            x       y       z     vdW  Elec       q    Type
REMARK                         _______ _______ _______ _____ _____    ______ ____
ROOT
ATOM      1  O   HOH     1      47.450  27.182   2.777  0.00  0.00    +0.000 OA
ENDROOT
TORSDOF 0
REMARK  Name = ../refined-set-2016/2clh/2clh_pocket.pdb
REMARK  222 active torsions:
REMARK  status: ('A' for Active; 'I' for Inactive)
REMARK    1  A    between atoms: _1  and  _3
REMARK    2  A    between atoms: _3  and  _4
REMARK    3  A    between atoms: _3  and  _6
REMARK    4  A    between atoms: _10  and  _11
REMARK    5  A    between atoms: _16  and  _18
REMARK    6  A    between atoms: _18  and  _19
REMARK    7  A    between atoms: _18  and  _21
REMARK    8  A    between atoms: _21  and  _22
REMARK    9  A    between atoms: _28  and  _30
REMARK   10  A    between atoms: _30  and  _31
REMARK   11  A    between atoms: _30  and  _33
REMARK   12  A    between atoms: _36  and  _38
REMARK   13  A    between atoms: _38  and  _39
REMARK   14  A    between atoms: _38  and  _41
REMARK   15  A    between atoms: _41  and  _42
REMARK   16  A    between atoms: _45  and  _47
REMARK   17  A    between atoms: _47  and  _48
REMARK   18  A    between atoms: _47  and  _50
REMARK   19  A    between atoms: _50  and  _51
REMARK   20  A    between atoms: _54  and  _56
REMARK   21  A    between atoms: _56  and  _57
REMARK   22  A    between atoms: _56  and  _59
REMARK   23  A    between atoms: _59  and  _60
REMARK   24  A    between atoms: _60  and  _61
REMARK   25  A    between atoms: _64  and  _66
REMARK   26  A    between atoms: _66  and  _67
REMARK   27  A    between atoms: _66  and  _69
REMARK   28  A    between atoms: _69  and  _70
REMARK   29  A    between atoms: _73  and  _75
REMARK   30  A    between atoms: _75  and  _76
REMARK   31  A    between atoms: _79  and  _80
REMARK   32  A    between atoms: _85  and  _87
REMARK   33  A    between atoms: _87  and  _88
REMARK   34  A    between atoms: _87  and  _90
REMARK   35  A    between atoms: _90  and  _91
REMARK   36  A    between atoms: _94  and  _96
REMARK   37  A    between atoms: _96  and  _97
REMARK   38  A    between atoms: _100  and  _102
REMARK   39  A    between atoms: _102  and  _103
REMARK   40  A    between atoms: _102  and  _105
REMARK   41  A    between atoms: _105  and  _106
REMARK   42  A    between atoms: _109  and  _111
REMARK   43  A    between atoms: _111  and  _112
REMARK   44  A    between atoms: _114  and  _116
REMARK   45  A    between atoms: _116  and  _117
REMARK   46  A    between atoms: _116  and  _119
REMARK   47  A    between atoms: _119  and  _120
REMARK   48  A    between atoms: _123  and  _125
REMARK   49  A    between atoms: _125  and  _126
REMARK   50  A    between atoms: _125  and  _128
REMARK   51  A    between atoms: _128  and  _129
REMARK   52  A    between atoms: _132  and  _134
REMARK   53  A    between atoms: _134  and  _135
REMARK   54  A    between atoms: _134  and  _137
REMARK   55  A    between atoms: _137  and  _138
REMARK   56  A    between atoms: _143  and  _145
REMARK   57  A    between atoms: _145  and  _146
REMARK   58  A    between atoms: _148  and  _150
REMARK   59  A    between atoms: _150  and  _151
REMARK   60  A    between atoms: _150  and  _153
REMARK   61  A    between atoms: _153  and  _154
REMARK   62  A    between atoms: _157  and  _159
REMARK   63  A    between atoms: _159  and  _160
REMARK   64  A    between atoms: _159  and  _162
REMARK   65  A    between atoms: _162  and  _163
REMARK   66  A    between atoms: _166  and  _168
REMARK   67  A    between atoms: _168  and  _169
REMARK   68  A    between atoms: _168  and  _171
REMARK   69  A    between atoms: _171  and  _172
REMARK   70  A    between atoms: _172  and  _173
REMARK   71  A    between atoms: _175  and  _177
REMARK   72  A    between atoms: _177  and  _178
REMARK   73  A    between atoms: _177  and  _180
REMARK   74  A    between atoms: _180  and  _181
REMARK   75  A    between atoms: _186  and  _187
REMARK   76  A    between atoms: _189  and  _191
REMARK   77  A    between atoms: _191  and  _192
REMARK   78  A    between atoms: _191  and  _194
REMARK   79  A    between atoms: _194  and  _195
REMARK   80  A    between atoms: _198  and  _200
REMARK   81  A    between atoms: _200  and  _201
REMARK   82  A    between atoms: _200  and  _203
REMARK   83  A    between atoms: _206  and  _208
REMARK   84  A    between atoms: _208  and  _209
REMARK   85  A    between atoms: _212  and  _214
REMARK   86  A    between atoms: _214  and  _215
REMARK   87  A    between atoms: _214  and  _217
REMARK   88  A    between atoms: _217  and  _218
REMARK   89  A    between atoms: _221  and  _223
REMARK   90  A    between atoms: _223  and  _224
REMARK   91  A    between atoms: _223  and  _226
REMARK   92  A    between atoms: _229  and  _231
REMARK   93  A    between atoms: _231  and  _232
REMARK   94  A    between atoms: _231  and  _234
REMARK   95  A    between atoms: _234  and  _235
REMARK   96  A    between atoms: _238  and  _240
REMARK   97  A    between atoms: _240  and  _241
REMARK   98  A    between atoms: _240  and  _243
REMARK   99  A    between atoms: _243  and  _244
REMARK  100  A    between atoms: _250  and  _252
REMARK  101  A    between atoms: _252  and  _253
REMARK  102  A    between atoms: _252  and  _255
REMARK  103  A    between atoms: _255  and  _256
REMARK  104  A    between atoms: _259  and  _261
REMARK  105  A    between atoms: _261  and  _262
REMARK  106  A    between atoms: _261  and  _264
REMARK  107  A    between atoms: _266  and  _268
REMARK  108  A    between atoms: _268  and  _269
REMARK  109  A    between atoms: _268  and  _271
REMARK  110  A    between atoms: _271  and  _272
REMARK  111  A    between atoms: _277  and  _278
REMARK  112  A    between atoms: _280  and  _282
REMARK  113  A    between atoms: _282  and  _283
REMARK  114  A    between atoms: _282  and  _285
REMARK  115  A    between atoms: _285  and  _286
REMARK  116  A    between atoms: _291  and  _292
REMARK  117  A    between atoms: _294  and  _296
REMARK  118  A    between atoms: _296  and  _297
REMARK  119  A    between atoms: _296  and  _299
REMARK  120  A    between atoms: _299  and  _300
REMARK  121  A    between atoms: _303  and  _305
REMARK  122  A    between atoms: _305  and  _306
REMARK  123  A    between atoms: _305  and  _308
REMARK  124  A    between atoms: _308  and  _309
REMARK  125  A    between atoms: _312  and  _314
REMARK  126  A    between atoms: _314  and  _315
REMARK  127  A    between atoms: _314  and  _317
REMARK  128  A    between atoms: _317  and  _318
REMARK  129  A    between atoms: _320  and  _322
REMARK  130  A    between atoms: _322  and  _323
REMARK  131  A    between atoms: _322  and  _325
REMARK  132  A    between atoms: _325  and  _326
REMARK  133  A    between atoms: _326  and  _327
REMARK  134  A    between atoms: _327  and  _328
REMARK  135  A    between atoms: _337  and  _339
REMARK  136  A    between atoms: _339  and  _340
REMARK  137  A    between atoms: _342  and  _344
REMARK  138  A    between atoms: _344  and  _345
REMARK  139  A    between atoms: _344  and  _347
REMARK  140  A    between atoms: _350  and  _352
REMARK  141  A    between atoms: _352  and  _353
REMARK  142  A    between atoms: _352  and  _355
REMARK  143  A    between atoms: _355  and  _356
REMARK  144  A    between atoms: _359  and  _361
REMARK  145  A    between atoms: _361  and  _362
REMARK  146  A    between atoms: _364  and  _366
REMARK  147  A    between atoms: _366  and  _367
REMARK  148  A    between atoms: _366  and  _369
REMARK  149  A    between atoms: _369  and  _370
REMARK  150  A    between atoms: _373  and  _375
REMARK  151  A    between atoms: _375  and  _376
REMARK  152  A    between atoms: _375  and  _378
REMARK  153  A    between atoms: _378  and  _379
REMARK  154  A    between atoms: _379  and  _380
REMARK  155  A    between atoms: _385  and  _387
REMARK  156  A    between atoms: _387  and  _388
REMARK  157  A    between atoms: _390  and  _392
REMARK  158  A    between atoms: _392  and  _393
REMARK  159  A    between atoms: _392  and  _395
REMARK  160  A    between atoms: _395  and  _396
REMARK  161  A    between atoms: _402  and  _404
REMARK  162  A    between atoms: _404  and  _405
REMARK  163  A    between atoms: _407  and  _409
REMARK  164  A    between atoms: _409  and  _410
REMARK  165  A    between atoms: _409  and  _412
REMARK  166  A    between atoms: _412  and  _413
REMARK  167  A    between atoms: _416  and  _418
REMARK  168  A    between atoms: _418  and  _419
REMARK  169  A    between atoms: _418  and  _421
REMARK  170  A    between atoms: _421  and  _422
REMARK  171  A    between atoms: _424  and  _426
REMARK  172  A    between atoms: _426  and  _427
REMARK  173  A    between atoms: _426  and  _429
REMARK  174  A    between atoms: _429  and  _430
REMARK  175  A    between atoms: _430  and  _431
REMARK  176  A    between atoms: _436  and  _438
REMARK  177  A    between atoms: _438  and  _439
REMARK  178  A    between atoms: _438  and  _441
REMARK  179  A    between atoms: _441  and  _442
REMARK  180  A    between atoms: _445  and  _447
REMARK  181  A    between atoms: _447  and  _448
REMARK  182  A    between atoms: _447  and  _450
REMARK  183  A    between atoms: _450  and  _451
REMARK  184  A    between atoms: _453  and  _455
REMARK  185  A    between atoms: _455  and  _456
REMARK  186  A    between atoms: _458  and  _460
REMARK  187  A    between atoms: _460  and  _461
REMARK  188  A    between atoms: _460  and  _463
REMARK  189  A    between atoms: _463  and  _464
REMARK  190  A    between atoms: _466  and  _468
REMARK  191  A    between atoms: _468  and  _469
REMARK  192  A    between atoms: _472  and  _474
REMARK  193  A    between atoms: _474  and  _475
REMARK  194  A    between atoms: _474  and  _477
REMARK  195  A    between atoms: _477  and  _478
REMARK  196  A    between atoms: _481  and  _483
REMARK  197  A    between atoms: _483  and  _484
REMARK  198  A    between atoms: _483  and  _486
REMARK  199  A    between atoms: _489  and  _491
REMARK  200  A    between atoms: _491  and  _492
REMARK  201  A    between atoms: _491  and  _494
REMARK  202  A    between atoms: _494  and  _495
REMARK  203  A    between atoms: _495  and  _496
REMARK  204  A    between atoms: _496  and  _497
REMARK  205  A    between atoms: _497  and  _498
REMARK  206  A    between atoms: _502  and  _504
REMARK  207  A    between atoms: _504  and  _505
REMARK  208  A    between atoms: _504  and  _507
REMARK  209  A    between atoms: _511  and  _512
REMARK  210  A    between atoms: _517  and  _519
REMARK  211  A    between atoms: _519  and  _520
REMARK  212  A    between atoms: _519  and  _522
REMARK  213  A    between atoms: _522  and  _523
REMARK  214  A    between atoms: _523  and  _524
REMARK  215  A    between atoms: _529  and  _531
REMARK  216  A    between atoms: _531  and  _532
REMARK  217  A    between atoms: _531  and  _534
REMARK  218  A    between atoms: _534  and  _535
REMARK  219  A    between atoms: _538  and  _540
REMARK  220  A    between atoms: _540  and  _541
REMARK  221  A    between atoms: _540  and  _543
REMARK  222  A    between atoms: _543  and  _544
REMARK                            x       y       z     vdW  Elec       q    Type
REMARK                         _______ _______ _______ _____ _____    ______ ____
ROOT
ATOM      1  O   HOH     1      54.399  20.382  10.088  0.00  0.00    +0.000 OA
ENDROOT
TORSDOF 0
REMARK  Name = ../refined-set-2016/2clh/2clh_pocket.pdb
REMARK  222 active torsions:
REMARK  status: ('A' for Active; 'I' for Inactive)
REMARK    1  A    between atoms: _1  and  _3
REMARK    2  A    between atoms: _3  and  _4
REMARK    3  A    between atoms: _3  and  _6
REMARK    4  A    between atoms: _10  and  _11
REMARK    5  A    between atoms: _16  and  _18
REMARK    6  A    between atoms: _18  and  _19
REMARK    7  A    between atoms: _18  and  _21
REMARK    8  A    between atoms: _21  and  _22
REMARK    9  A    between atoms: _28  and  _30
REMARK   10  A    between atoms: _30  and  _31
REMARK   11  A    between atoms: _30  and  _33
REMARK   12  A    between atoms: _36  and  _38
REMARK   13  A    between atoms: _38  and  _39
REMARK   14  A    between atoms: _38  and  _41
REMARK   15  A    between atoms: _41  and  _42
REMARK   16  A    between atoms: _45  and  _47
REMARK   17  A    between atoms: _47  and  _48
REMARK   18  A    between atoms: _47  and  _50
REMARK   19  A    between atoms: _50  and  _51
REMARK   20  A    between atoms: _54  and  _56
REMARK   21  A    between atoms: _56  and  _57
REMARK   22  A    between atoms: _56  and  _59
REMARK   23  A    between atoms: _59  and  _60
REMARK   24  A    between atoms: _60  and  _61
REMARK   25  A    between atoms: _64  and  _66
REMARK   26  A    between atoms: _66  and  _67
REMARK   27  A    between atoms: _66  and  _69
REMARK   28  A    between atoms: _69  and  _70
REMARK   29  A    between atoms: _73  and  _75
REMARK   30  A    between atoms: _75  and  _76
REMARK   31  A    between atoms: _79  and  _80
REMARK   32  A    between atoms: _85  and  _87
REMARK   33  A    between atoms: _87  and  _88
REMARK   34  A    between atoms: _87  and  _90
REMARK   35  A    between atoms: _90  and  _91
REMARK   36  A    between atoms: _94  and  _96
REMARK   37  A    between atoms: _96  and  _97
REMARK   38  A    between atoms: _100  and  _102
REMARK   39  A    between atoms: _102  and  _103
REMARK   40  A    between atoms: _102  and  _105
REMARK   41  A    between atoms: _105  and  _106
REMARK   42  A    between atoms: _109  and  _111
REMARK   43  A    between atoms: _111  and  _112
REMARK   44  A    between atoms: _114  and  _116
REMARK   45  A    between atoms: _116  and  _117
REMARK   46  A    between atoms: _116  and  _119
REMARK   47  A    between atoms: _119  and  _120
REMARK   48  A    between atoms: _123  and  _125
REMARK   49  A    between atoms: _125  and  _126
REMARK   50  A    between atoms: _125  and  _128
REMARK   51  A    between atoms: _128  and  _129
REMARK   52  A    between atoms: _132  and  _134
REMARK   53  A    between atoms: _134  and  _135
REMARK   54  A    between atoms: _134  and  _137
REMARK   55  A    between atoms: _137  and  _138
REMARK   56  A    between atoms: _143  and  _145
REMARK   57  A    between atoms: _145  and  _146
REMARK   58  A    between atoms: _148  and  _150
REMARK   59  A    between atoms: _150  and  _151
REMARK   60  A    between atoms: _150  and  _153
REMARK   61  A    between atoms: _153  and  _154
REMARK   62  A    between atoms: _157  and  _159
REMARK   63  A    between atoms: _159  and  _160
REMARK   64  A    between atoms: _159  and  _162
REMARK   65  A    between atoms: _162  and  _163
REMARK   66  A    between atoms: _166  and  _168
REMARK   67  A    between atoms: _168  and  _169
REMARK   68  A    between atoms: _168  and  _171
REMARK   69  A    between atoms: _171  and  _172
REMARK   70  A    between atoms: _172  and  _173
REMARK   71  A    between atoms: _175  and  _177
REMARK   72  A    between atoms: _177  and  _178
REMARK   73  A    between atoms: _177  and  _180
REMARK   74  A    between atoms: _180  and  _181
REMARK   75  A    between atoms: _186  and  _187
REMARK   76  A    between atoms: _189  and  _191
REMARK   77  A    between atoms: _191  and  _192
REMARK   78  A    between atoms: _191  and  _194
REMARK   79  A    between atoms: _194  and  _195
REMARK   80  A    between atoms: _198  and  _200
REMARK   81  A    between atoms: _200  and  _201
REMARK   82  A    between atoms: _200  and  _203
REMARK   83  A    between atoms: _206  and  _208
REMARK   84  A    between atoms: _208  and  _209
REMARK   85  A    between atoms: _212  and  _214
REMARK   86  A    between atoms: _214  and  _215
REMARK   87  A    between atoms: _214  and  _217
REMARK   88  A    between atoms: _217  and  _218
REMARK   89  A    between atoms: _221  and  _223
REMARK   90  A    between atoms: _223  and  _224
REMARK   91  A    between atoms: _223  and  _226
REMARK   92  A    between atoms: _229  and  _231
REMARK   93  A    between atoms: _231  and  _232
REMARK   94  A    between atoms: _231  and  _234
REMARK   95  A    between atoms: _234  and  _235
REMARK   96  A    between atoms: _238  and  _240
REMARK   97  A    between atoms: _240  and  _241
REMARK   98  A    between atoms: _240  and  _243
REMARK   99  A    between atoms: _243  and  _244
REMARK  100  A    between atoms: _250  and  _252
REMARK  101  A    between atoms: _252  and  _253
REMARK  102  A    between atoms: _252  and  _255
REMARK  103  A    between atoms: _255  and  _256
REMARK  104  A    between atoms: _259  and  _261
REMARK  105  A    between atoms: _261  and  _262
REMARK  106  A    between atoms: _261  and  _264
REMARK  107  A    between atoms: _266  and  _268
REMARK  108  A    between atoms: _268  and  _269
REMARK  109  A    between atoms: _268  and  _271
REMARK  110  A    between atoms: _271  and  _272
REMARK  111  A    between atoms: _277  and  _278
REMARK  112  A    between atoms: _280  and  _282
REMARK  113  A    between atoms: _282  and  _283
REMARK  114  A    between atoms: _282  and  _285
REMARK  115  A    between atoms: _285  and  _286
REMARK  116  A    between atoms: _291  and  _292
REMARK  117  A    between atoms: _294  and  _296
REMARK  118  A    between atoms: _296  and  _297
REMARK  119  A    between atoms: _296  and  _299
REMARK  120  A    between atoms: _299  and  _300
REMARK  121  A    between atoms: _303  and  _305
REMARK  122  A    between atoms: _305  and  _306
REMARK  123  A    between atoms: _305  and  _308
REMARK  124  A    between atoms: _308  and  _309
REMARK  125  A    between atoms: _312  and  _314
REMARK  126  A    between atoms: _314  and  _315
REMARK  127  A    between atoms: _314  and  _317
REMARK  128  A    between atoms: _317  and  _318
REMARK  129  A    between atoms: _320  and  _322
REMARK  130  A    between atoms: _322  and  _323
REMARK  131  A    between atoms: _322  and  _325
REMARK  132  A    between atoms: _325  and  _326
REMARK  133  A    between atoms: _326  and  _327
REMARK  134  A    between atoms: _327  and  _328
REMARK  135  A    between atoms: _337  and  _339
REMARK  136  A    between atoms: _339  and  _340
REMARK  137  A    between atoms: _342  and  _344
REMARK  138  A    between atoms: _344  and  _345
REMARK  139  A    between atoms: _344  and  _347
REMARK  140  A    between atoms: _350  and  _352
REMARK  141  A    between atoms: _352  and  _353
REMARK  142  A    between atoms: _352  and  _355
REMARK  143  A    between atoms: _355  and  _356
REMARK  144  A    between atoms: _359  and  _361
REMARK  145  A    between atoms: _361  and  _362
REMARK  146  A    between atoms: _364  and  _366
REMARK  147  A    between atoms: _366  and  _367
REMARK  148  A    between atoms: _366  and  _369
REMARK  149  A    between atoms: _369  and  _370
REMARK  150  A    between atoms: _373  and  _375
REMARK  151  A    between atoms: _375  and  _376
REMARK  152  A    between atoms: _375  and  _378
REMARK  153  A    between atoms: _378  and  _379
REMARK  154  A    between atoms: _379  and  _380
REMARK  155  A    between atoms: _385  and  _387
REMARK  156  A    between atoms: _387  and  _388
REMARK  157  A    between atoms: _390  and  _392
REMARK  158  A    between atoms: _392  and  _393
REMARK  159  A    between atoms: _392  and  _395
REMARK  160  A    between atoms: _395  and  _396
REMARK  161  A    between atoms: _402  and  _404
REMARK  162  A    between atoms: _404  and  _405
REMARK  163  A    between atoms: _407  and  _409
REMARK  164  A    between atoms: _409  and  _410
REMARK  165  A    between atoms: _409  and  _412
REMARK  166  A    between atoms: _412  and  _413
REMARK  167  A    between atoms: _416  and  _418
REMARK  168  A    between atoms: _418  and  _419
REMARK  169  A    between atoms: _418  and  _421
REMARK  170  A    between atoms: _421  and  _422
REMARK  171  A    between atoms: _424  and  _426
REMARK  172  A    between atoms: _426  and  _427
REMARK  173  A    between atoms: _426  and  _429
REMARK  174  A    between atoms: _429  and  _430
REMARK  175  A    between atoms: _430  and  _431
REMARK  176  A    between atoms: _436  and  _438
REMARK  177  A    between atoms: _438  and  _439
REMARK  178  A    between atoms: _438  and  _441
REMARK  179  A    between atoms: _441  and  _442
REMARK  180  A    between atoms: _445  and  _447
REMARK  181  A    between atoms: _447  and  _448
REMARK  182  A    between atoms: _447  and  _450
REMARK  183  A    between atoms: _450  and  _451
REMARK  184  A    between atoms: _453  and  _455
REMARK  185  A    between atoms: _455  and  _456
REMARK  186  A    between atoms: _458  and  _460
REMARK  187  A    between atoms: _460  and  _461
REMARK  188  A    between atoms: _460  and  _463
REMARK  189  A    between atoms: _463  and  _464
REMARK  190  A    between atoms: _466  and  _468
REMARK  191  A    between atoms: _468  and  _469
REMARK  192  A    between atoms: _472  and  _474
REMARK  193  A    between atoms: _474  and  _475
REMARK  194  A    between atoms: _474  and  _477
REMARK  195  A    between atoms: _477  and  _478
REMARK  196  A    between atoms: _481  and  _483
REMARK  197  A    between atoms: _483  and  _484
REMARK  198  A    between atoms: _483  and  _486
REMARK  199  A    between atoms: _489  and  _491
REMARK  200  A    between atoms: _491  and  _492
REMARK  201  A    between atoms: _491  and  _494
REMARK  202  A    between atoms: _494  and  _495
REMARK  203  A    between atoms: _495  and  _496
REMARK  204  A    between atoms: _496  and  _497
REMARK  205  A    between atoms: _497  and  _498
REMARK  206  A    between atoms: _502  and  _504
REMARK  207  A    between atoms: _504  and  _505
REMARK  208  A    between atoms: _504  and  _507
REMARK  209  A    between atoms: _511  and  _512
REMARK  210  A    between atoms: _517  and  _519
REMARK  211  A    between atoms: _519  and  _520
REMARK  212  A    between atoms: _519  and  _522
REMARK  213  A    between atoms: _522  and  _523
REMARK  214  A    between atoms: _523  and  _524
REMARK  215  A    between atoms: _529  and  _531
REMARK  216  A    between atoms: _531  and  _532
REMARK  217  A    between atoms: _531  and  _534
REMARK  218  A    between atoms: _534  and  _535
REMARK  219  A    between atoms: _538  and  _540
REMARK  220  A    between atoms: _540  and  _541
REMARK  221  A    between atoms: _540  and  _543
REMARK  222  A    between atoms: _543  and  _544
REMARK                            x       y       z     vdW  Elec       q    Type
REMARK                         _______ _______ _______ _____ _____    ______ ____
ROOT
ATOM      1  O   HOH     1      50.483  19.857   8.480  0.00  0.00    +0.000 OA
ENDROOT
TORSDOF 0
REMARK  Name = ../refined-set-2016/2clh/2clh_pocket.pdb
REMARK  222 active torsions:
REMARK  status: ('A' for Active; 'I' for Inactive)
REMARK    1  A    between atoms: _1  and  _3
REMARK    2  A    between atoms: _3  and  _4
REMARK    3  A    between atoms: _3  and  _6
REMARK    4  A    between atoms: _10  and  _11
REMARK    5  A    between atoms: _16  and  _18
REMARK    6  A    between atoms: _18  and  _19
REMARK    7  A    between atoms: _18  and  _21
REMARK    8  A    between atoms: _21  and  _22
REMARK    9  A    between atoms: _28  and  _30
REMARK   10  A    between atoms: _30  and  _31
REMARK   11  A    between atoms: _30  and  _33
REMARK   12  A    between atoms: _36  and  _38
REMARK   13  A    between atoms: _38  and  _39
REMARK   14  A    between atoms: _38  and  _41
REMARK   15  A    between atoms: _41  and  _42
REMARK   16  A    between atoms: _45  and  _47
REMARK   17  A    between atoms: _47  and  _48
REMARK   18  A    between atoms: _47  and  _50
REMARK   19  A    between atoms: _50  and  _51
REMARK   20  A    between atoms: _54  and  _56
REMARK   21  A    between atoms: _56  and  _57
REMARK   22  A    between atoms: _56  and  _59
REMARK   23  A    between atoms: _59  and  _60
REMARK   24  A    between atoms: _60  and  _61
REMARK   25  A    between atoms: _64  and  _66
REMARK   26  A    between atoms: _66  and  _67
REMARK   27  A    between atoms: _66  and  _69
REMARK   28  A    between atoms: _69  and  _70
REMARK   29  A    between atoms: _73  and  _75
REMARK   30  A    between atoms: _75  and  _76
REMARK   31  A    between atoms: _79  and  _80
REMARK   32  A    between atoms: _85  and  _87
REMARK   33  A    between atoms: _87  and  _88
REMARK   34  A    between atoms: _87  and  _90
REMARK   35  A    between atoms: _90  and  _91
REMARK   36  A    between atoms: _94  and  _96
REMARK   37  A    between atoms: _96  and  _97
REMARK   38  A    between atoms: _100  and  _102
REMARK   39  A    between atoms: _102  and  _103
REMARK   40  A    between atoms: _102  and  _105
REMARK   41  A    between atoms: _105  and  _106
REMARK   42  A    between atoms: _109  and  _111
REMARK   43  A    between atoms: _111  and  _112
REMARK   44  A    between atoms: _114  and  _116
REMARK   45  A    between atoms: _116  and  _117
REMARK   46  A    between atoms: _116  and  _119
REMARK   47  A    between atoms: _119  and  _120
REMARK   48  A    between atoms: _123  and  _125
REMARK   49  A    between atoms: _125  and  _126
REMARK   50  A    between atoms: _125  and  _128
REMARK   51  A    between atoms: _128  and  _129
REMARK   52  A    between atoms: _132  and  _134
REMARK   53  A    between atoms: _134  and  _135
REMARK   54  A    between atoms: _134  and  _137
REMARK   55  A    between atoms: _137  and  _138
REMARK   56  A    between atoms: _143  and  _145
REMARK   57  A    between atoms: _145  and  _146
REMARK   58  A    between atoms: _148  and  _150
REMARK   59  A    between atoms: _150  and  _151
REMARK   60  A    between atoms: _150  and  _153
REMARK   61  A    between atoms: _153  and  _154
REMARK   62  A    between atoms: _157  and  _159
REMARK   63  A    between atoms: _159  and  _160
REMARK   64  A    between atoms: _159  and  _162
REMARK   65  A    between atoms: _162  and  _163
REMARK   66  A    between atoms: _166  and  _168
REMARK   67  A    between atoms: _168  and  _169
REMARK   68  A    between atoms: _168  and  _171
REMARK   69  A    between atoms: _171  and  _172
REMARK   70  A    between atoms: _172  and  _173
REMARK   71  A    between atoms: _175  and  _177
REMARK   72  A    between atoms: _177  and  _178
REMARK   73  A    between atoms: _177  and  _180
REMARK   74  A    between atoms: _180  and  _181
REMARK   75  A    between atoms: _186  and  _187
REMARK   76  A    between atoms: _189  and  _191
REMARK   77  A    between atoms: _191  and  _192
REMARK   78  A    between atoms: _191  and  _194
REMARK   79  A    between atoms: _194  and  _195
REMARK   80  A    between atoms: _198  and  _200
REMARK   81  A    between atoms: _200  and  _201
REMARK   82  A    between atoms: _200  and  _203
REMARK   83  A    between atoms: _206  and  _208
REMARK   84  A    between atoms: _208  and  _209
REMARK   85  A    between atoms: _212  and  _214
REMARK   86  A    between atoms: _214  and  _215
REMARK   87  A    between atoms: _214  and  _217
REMARK   88  A    between atoms: _217  and  _218
REMARK   89  A    between atoms: _221  and  _223
REMARK   90  A    between atoms: _223  and  _224
REMARK   91  A    between atoms: _223  and  _226
REMARK   92  A    between atoms: _229  and  _231
REMARK   93  A    between atoms: _231  and  _232
REMARK   94  A    between atoms: _231  and  _234
REMARK   95  A    between atoms: _234  and  _235
REMARK   96  A    between atoms: _238  and  _240
REMARK   97  A    between atoms: _240  and  _241
REMARK   98  A    between atoms: _240  and  _243
REMARK   99  A    between atoms: _243  and  _244
REMARK  100  A    between atoms: _250  and  _252
REMARK  101  A    between atoms: _252  and  _253
REMARK  102  A    between atoms: _252  and  _255
REMARK  103  A    between atoms: _255  and  _256
REMARK  104  A    between atoms: _259  and  _261
REMARK  105  A    between atoms: _261  and  _262
REMARK  106  A    between atoms: _261  and  _264
REMARK  107  A    between atoms: _266  and  _268
REMARK  108  A    between atoms: _268  and  _269
REMARK  109  A    between atoms: _268  and  _271
REMARK  110  A    between atoms: _271  and  _272
REMARK  111  A    between atoms: _277  and  _278
REMARK  112  A    between atoms: _280  and  _282
REMARK  113  A    between atoms: _282  and  _283
REMARK  114  A    between atoms: _282  and  _285
REMARK  115  A    between atoms: _285  and  _286
REMARK  116  A    between atoms: _291  and  _292
REMARK  117  A    between atoms: _294  and  _296
REMARK  118  A    between atoms: _296  and  _297
REMARK  119  A    between atoms: _296  and  _299
REMARK  120  A    between atoms: _299  and  _300
REMARK  121  A    between atoms: _303  and  _305
REMARK  122  A    between atoms: _305  and  _306
REMARK  123  A    between atoms: _305  and  _308
REMARK  124  A    between atoms: _308  and  _309
REMARK  125  A    between atoms: _312  and  _314
REMARK  126  A    between atoms: _314  and  _315
REMARK  127  A    between atoms: _314  and  _317
REMARK  128  A    between atoms: _317  and  _318
REMARK  129  A    between atoms: _320  and  _322
REMARK  130  A    between atoms: _322  and  _323
REMARK  131  A    between atoms: _322  and  _325
REMARK  132  A    between atoms: _325  and  _326
REMARK  133  A    between atoms: _326  and  _327
REMARK  134  A    between atoms: _327  and  _328
REMARK  135  A    between atoms: _337  and  _339
REMARK  136  A    between atoms: _339  and  _340
REMARK  137  A    between atoms: _342  and  _344
REMARK  138  A    between atoms: _344  and  _345
REMARK  139  A    between atoms: _344  and  _347
REMARK  140  A    between atoms: _350  and  _352
REMARK  141  A    between atoms: _352  and  _353
REMARK  142  A    between atoms: _352  and  _355
REMARK  143  A    between atoms: _355  and  _356
REMARK  144  A    between atoms: _359  and  _361
REMARK  145  A    between atoms: _361  and  _362
REMARK  146  A    between atoms: _364  and  _366
REMARK  147  A    between atoms: _366  and  _367
REMARK  148  A    between atoms: _366  and  _369
REMARK  149  A    between atoms: _369  and  _370
REMARK  150  A    between atoms: _373  and  _375
REMARK  151  A    between atoms: _375  and  _376
REMARK  152  A    between atoms: _375  and  _378
REMARK  153  A    between atoms: _378  and  _379
REMARK  154  A    between atoms: _379  and  _380
REMARK  155  A    between atoms: _385  and  _387
REMARK  156  A    between atoms: _387  and  _388
REMARK  157  A    between atoms: _390  and  _392
REMARK  158  A    between atoms: _392  and  _393
REMARK  159  A    between atoms: _392  and  _395
REMARK  160  A    between atoms: _395  and  _396
REMARK  161  A    between atoms: _402  and  _404
REMARK  162  A    between atoms: _404  and  _405
REMARK  163  A    between atoms: _407  and  _409
REMARK  164  A    between atoms: _409  and  _410
REMARK  165  A    between atoms: _409  and  _412
REMARK  166  A    between atoms: _412  and  _413
REMARK  167  A    between atoms: _416  and  _418
REMARK  168  A    between atoms: _418  and  _419
REMARK  169  A    between atoms: _418  and  _421
REMARK  170  A    between atoms: _421  and  _422
REMARK  171  A    between atoms: _424  and  _426
REMARK  172  A    between atoms: _426  and  _427
REMARK  173  A    between atoms: _426  and  _429
REMARK  174  A    between atoms: _429  and  _430
REMARK  175  A    between atoms: _430  and  _431
REMARK  176  A    between atoms: _436  and  _438
REMARK  177  A    between atoms: _438  and  _439
REMARK  178  A    between atoms: _438  and  _441
REMARK  179  A    between atoms: _441  and  _442
REMARK  180  A    between atoms: _445  and  _447
REMARK  181  A    between atoms: _447  and  _448
REMARK  182  A    between atoms: _447  and  _450
REMARK  183  A    between atoms: _450  and  _451
REMARK  184  A    between atoms: _453  and  _455
REMARK  185  A    between atoms: _455  and  _456
REMARK  186  A    between atoms: _458  and  _460
REMARK  187  A    between atoms: _460  and  _461
REMARK  188  A    between atoms: _460  and  _463
REMARK  189  A    between atoms: _463  and  _464
REMARK  190  A    between atoms: _466  and  _468
REMARK  191  A    between atoms: _468  and  _469
REMARK  192  A    between atoms: _472  and  _474
REMARK  193  A    between atoms: _474  and  _475
REMARK  194  A    between atoms: _474  and  _477
REMARK  195  A    between atoms: _477  and  _478
REMARK  196  A    between atoms: _481  and  _483
REMARK  197  A    between atoms: _483  and  _484
REMARK  198  A    between atoms: _483  and  _486
REMARK  199  A    between atoms: _489  and  _491
REMARK  200  A    between atoms: _491  and  _492
REMARK  201  A    between atoms: _491  and  _494
REMARK  202  A    between atoms: _494  and  _495
REMARK  203  A    between atoms: _495  and  _496
REMARK  204  A    between atoms: _496  and  _497
REMARK  205  A    between atoms: _497  and  _498
REMARK  206  A    between atoms: _502  and  _504
REMARK  207  A    between atoms: _504  and  _505
REMARK  208  A    between atoms: _504  and  _507
REMARK  209  A    between atoms: _511  and  _512
REMARK  210  A    between atoms: _517  and  _519
REMARK  211  A    between atoms: _519  and  _520
REMARK  212  A    between atoms: _519  and  _522
REMARK  213  A    between atoms: _522  and  _523
REMARK  214  A    between atoms: _523  and  _524
REMARK  215  A    between atoms: _529  and  _531
REMARK  216  A    between atoms: _531  and  _532
REMARK  217  A    between atoms: _531  and  _534
REMARK  218  A    between atoms: _534  and  _535
REMARK  219  A    between atoms: _538  and  _540
REMARK  220  A    between atoms: _540  and  _541
REMARK  221  A    between atoms: _540  and  _543
REMARK  222  A    between atoms: _543  and  _544
REMARK                            x       y       z     vdW  Elec       q    Type
REMARK                         _______ _______ _______ _____ _____    ______ ____
ROOT
ATOM      1  O   HOH     1      53.367  30.790   9.454  0.00  0.00    +0.000 OA
ENDROOT
TORSDOF 0
REMARK  Name = ../refined-set-2016/2clh/2clh_pocket.pdb
REMARK  222 active torsions:
REMARK  status: ('A' for Active; 'I' for Inactive)
REMARK    1  A    between atoms: _1  and  _3
REMARK    2  A    between atoms: _3  and  _4
REMARK    3  A    between atoms: _3  and  _6
REMARK    4  A    between atoms: _10  and  _11
REMARK    5  A    between atoms: _16  and  _18
REMARK    6  A    between atoms: _18  and  _19
REMARK    7  A    between atoms: _18  and  _21
REMARK    8  A    between atoms: _21  and  _22
REMARK    9  A    between atoms: _28  and  _30
REMARK   10  A    between atoms: _30  and  _31
REMARK   11  A    between atoms: _30  and  _33
REMARK   12  A    between atoms: _36  and  _38
REMARK   13  A    between atoms: _38  and  _39
REMARK   14  A    between atoms: _38  and  _41
REMARK   15  A    between atoms: _41  and  _42
REMARK   16  A    between atoms: _45  and  _47
REMARK   17  A    between atoms: _47  and  _48
REMARK   18  A    between atoms: _47  and  _50
REMARK   19  A    between atoms: _50  and  _51
REMARK   20  A    between atoms: _54  and  _56
REMARK   21  A    between atoms: _56  and  _57
REMARK   22  A    between atoms: _56  and  _59
REMARK   23  A    between atoms: _59  and  _60
REMARK   24  A    between atoms: _60  and  _61
REMARK   25  A    between atoms: _64  and  _66
REMARK   26  A    between atoms: _66  and  _67
REMARK   27  A    between atoms: _66  and  _69
REMARK   28  A    between atoms: _69  and  _70
REMARK   29  A    between atoms: _73  and  _75
REMARK   30  A    between atoms: _75  and  _76
REMARK   31  A    between atoms: _79  and  _80
REMARK   32  A    between atoms: _85  and  _87
REMARK   33  A    between atoms: _87  and  _88
REMARK   34  A    between atoms: _87  and  _90
REMARK   35  A    between atoms: _90  and  _91
REMARK   36  A    between atoms: _94  and  _96
REMARK   37  A    between atoms: _96  and  _97
REMARK   38  A    between atoms: _100  and  _102
REMARK   39  A    between atoms: _102  and  _103
REMARK   40  A    between atoms: _102  and  _105
REMARK   41  A    between atoms: _105  and  _106
REMARK   42  A    between atoms: _109  and  _111
REMARK   43  A    between atoms: _111  and  _112
REMARK   44  A    between atoms: _114  and  _116
REMARK   45  A    between atoms: _116  and  _117
REMARK   46  A    between atoms: _116  and  _119
REMARK   47  A    between atoms: _119  and  _120
REMARK   48  A    between atoms: _123  and  _125
REMARK   49  A    between atoms: _125  and  _126
REMARK   50  A    between atoms: _125  and  _128
REMARK   51  A    between atoms: _128  and  _129
REMARK   52  A    between atoms: _132  and  _134
REMARK   53  A    between atoms: _134  and  _135
REMARK   54  A    between atoms: _134  and  _137
REMARK   55  A    between atoms: _137  and  _138
REMARK   56  A    between atoms: _143  and  _145
REMARK   57  A    between atoms: _145  and  _146
REMARK   58  A    between atoms: _148  and  _150
REMARK   59  A    between atoms: _150  and  _151
REMARK   60  A    between atoms: _150  and  _153
REMARK   61  A    between atoms: _153  and  _154
REMARK   62  A    between atoms: _157  and  _159
REMARK   63  A    between atoms: _159  and  _160
REMARK   64  A    between atoms: _159  and  _162
REMARK   65  A    between atoms: _162  and  _163
REMARK   66  A    between atoms: _166  and  _168
REMARK   67  A    between atoms: _168  and  _169
REMARK   68  A    between atoms: _168  and  _171
REMARK   69  A    between atoms: _171  and  _172
REMARK   70  A    between atoms: _172  and  _173
REMARK   71  A    between atoms: _175  and  _177
REMARK   72  A    between atoms: _177  and  _178
REMARK   73  A    between atoms: _177  and  _180
REMARK   74  A    between atoms: _180  and  _181
REMARK   75  A    between atoms: _186  and  _187
REMARK   76  A    between atoms: _189  and  _191
REMARK   77  A    between atoms: _191  and  _192
REMARK   78  A    between atoms: _191  and  _194
REMARK   79  A    between atoms: _194  and  _195
REMARK   80  A    between atoms: _198  and  _200
REMARK   81  A    between atoms: _200  and  _201
REMARK   82  A    between atoms: _200  and  _203
REMARK   83  A    between atoms: _206  and  _208
REMARK   84  A    between atoms: _208  and  _209
REMARK   85  A    between atoms: _212  and  _214
REMARK   86  A    between atoms: _214  and  _215
REMARK   87  A    between atoms: _214  and  _217
REMARK   88  A    between atoms: _217  and  _218
REMARK   89  A    between atoms: _221  and  _223
REMARK   90  A    between atoms: _223  and  _224
REMARK   91  A    between atoms: _223  and  _226
REMARK   92  A    between atoms: _229  and  _231
REMARK   93  A    between atoms: _231  and  _232
REMARK   94  A    between atoms: _231  and  _234
REMARK   95  A    between atoms: _234  and  _235
REMARK   96  A    between atoms: _238  and  _240
REMARK   97  A    between atoms: _240  and  _241
REMARK   98  A    between atoms: _240  and  _243
REMARK   99  A    between atoms: _243  and  _244
REMARK  100  A    between atoms: _250  and  _252
REMARK  101  A    between atoms: _252  and  _253
REMARK  102  A    between atoms: _252  and  _255
REMARK  103  A    between atoms: _255  and  _256
REMARK  104  A    between atoms: _259  and  _261
REMARK  105  A    between atoms: _261  and  _262
REMARK  106  A    between atoms: _261  and  _264
REMARK  107  A    between atoms: _266  and  _268
REMARK  108  A    between atoms: _268  and  _269
REMARK  109  A    between atoms: _268  and  _271
REMARK  110  A    between atoms: _271  and  _272
REMARK  111  A    between atoms: _277  and  _278
REMARK  112  A    between atoms: _280  and  _282
REMARK  113  A    between atoms: _282  and  _283
REMARK  114  A    between atoms: _282  and  _285
REMARK  115  A    between atoms: _285  and  _286
REMARK  116  A    between atoms: _291  and  _292
REMARK  117  A    between atoms: _294  and  _296
REMARK  118  A    between atoms: _296  and  _297
REMARK  119  A    between atoms: _296  and  _299
REMARK  120  A    between atoms: _299  and  _300
REMARK  121  A    between atoms: _303  and  _305
REMARK  122  A    between atoms: _305  and  _306
REMARK  123  A    between atoms: _305  and  _308
REMARK  124  A    between atoms: _308  and  _309
REMARK  125  A    between atoms: _312  and  _314
REMARK  126  A    between atoms: _314  and  _315
REMARK  127  A    between atoms: _314  and  _317
REMARK  128  A    between atoms: _317  and  _318
REMARK  129  A    between atoms: _320  and  _322
REMARK  130  A    between atoms: _322  and  _323
REMARK  131  A    between atoms: _322  and  _325
REMARK  132  A    between atoms: _325  and  _326
REMARK  133  A    between atoms: _326  and  _327
REMARK  134  A    between atoms: _327  and  _328
REMARK  135  A    between atoms: _337  and  _339
REMARK  136  A    between atoms: _339  and  _340
REMARK  137  A    between atoms: _342  and  _344
REMARK  138  A    between atoms: _344  and  _345
REMARK  139  A    between atoms: _344  and  _347
REMARK  140  A    between atoms: _350  and  _352
REMARK  141  A    between atoms: _352  and  _353
REMARK  142  A    between atoms: _352  and  _355
REMARK  143  A    between atoms: _355  and  _356
REMARK  144  A    between atoms: _359  and  _361
REMARK  145  A    between atoms: _361  and  _362
REMARK  146  A    between atoms: _364  and  _366
REMARK  147  A    between atoms: _366  and  _367
REMARK  148  A    between atoms: _366  and  _369
REMARK  149  A    between atoms: _369  and  _370
REMARK  150  A    between atoms: _373  and  _375
REMARK  151  A    between atoms: _375  and  _376
REMARK  152  A    between atoms: _375  and  _378
REMARK  153  A    between atoms: _378  and  _379
REMARK  154  A    between atoms: _379  and  _380
REMARK  155  A    between atoms: _385  and  _387
REMARK  156  A    between atoms: _387  and  _388
REMARK  157  A    between atoms: _390  and  _392
REMARK  158  A    between atoms: _392  and  _393
REMARK  159  A    between atoms: _392  and  _395
REMARK  160  A    between atoms: _395  and  _396
REMARK  161  A    between atoms: _402  and  _404
REMARK  162  A    between atoms: _404  and  _405
REMARK  163  A    between atoms: _407  and  _409
REMARK  164  A    between atoms: _409  and  _410
REMARK  165  A    between atoms: _409  and  _412
REMARK  166  A    between atoms: _412  and  _413
REMARK  167  A    between atoms: _416  and  _418
REMARK  168  A    between atoms: _418  and  _419
REMARK  169  A    between atoms: _418  and  _421
REMARK  170  A    between atoms: _421  and  _422
REMARK  171  A    between atoms: _424  and  _426
REMARK  172  A    between atoms: _426  and  _427
REMARK  173  A    between atoms: _426  and  _429
REMARK  174  A    between atoms: _429  and  _430
REMARK  175  A    between atoms: _430  and  _431
REMARK  176  A    between atoms: _436  and  _438
REMARK  177  A    between atoms: _438  and  _439
REMARK  178  A    between atoms: _438  and  _441
REMARK  179  A    between atoms: _441  and  _442
REMARK  180  A    between atoms: _445  and  _447
REMARK  181  A    between atoms: _447  and  _448
REMARK  182  A    between atoms: _447  and  _450
REMARK  183  A    between atoms: _450  and  _451
REMARK  184  A    between atoms: _453  and  _455
REMARK  185  A    between atoms: _455  and  _456
REMARK  186  A    between atoms: _458  and  _460
REMARK  187  A    between atoms: _460  and  _461
REMARK  188  A    between atoms: _460  and  _463
REMARK  189  A    between atoms: _463  and  _464
REMARK  190  A    between atoms: _466  and  _468
REMARK  191  A    between atoms: _468  and  _469
REMARK  192  A    between atoms: _472  and  _474
REMARK  193  A    between atoms: _474  and  _475
REMARK  194  A    between atoms: _474  and  _477
REMARK  195  A    between atoms: _477  and  _478
REMARK  196  A    between atoms: _481  and  _483
REMARK  197  A    between atoms: _483  and  _484
REMARK  198  A    between atoms: _483  and  _486
REMARK  199  A    between atoms: _489  and  _491
REMARK  200  A    between atoms: _491  and  _492
REMARK  201  A    between atoms: _491  and  _494
REMARK  202  A    between atoms: _494  and  _495
REMARK  203  A    between atoms: _495  and  _496
REMARK  204  A    between atoms: _496  and  _497
REMARK  205  A    between atoms: _497  and  _498
REMARK  206  A    between atoms: _502  and  _504
REMARK  207  A    between atoms: _504  and  _505
REMARK  208  A    between atoms: _504  and  _507
REMARK  209  A    between atoms: _511  and  _512
REMARK  210  A    between atoms: _517  and  _519
REMARK  211  A    between atoms: _519  and  _520
REMARK  212  A    between atoms: _519  and  _522
REMARK  213  A    between atoms: _522  and  _523
REMARK  214  A    between atoms: _523  and  _524
REMARK  215  A    between atoms: _529  and  _531
REMARK  216  A    between atoms: _531  and  _532
REMARK  217  A    between atoms: _531  and  _534
REMARK  218  A    between atoms: _534  and  _535
REMARK  219  A    between atoms: _538  and  _540
REMARK  220  A    between atoms: _540  and  _541
REMARK  221  A    between atoms: _540  and  _543
REMARK  222  A    between atoms: _543  and  _544
REMARK                            x       y       z     vdW  Elec       q    Type
REMARK                         _______ _______ _______ _____ _____    ______ ____
ROOT
ATOM      1  O   HOH     1      53.554  27.870   5.092  0.00  0.00    +0.000 OA
ENDROOT
TORSDOF 0
REMARK  Name = ../refined-set-2016/2clh/2clh_pocket.pdb
REMARK  222 active torsions:
REMARK  status: ('A' for Active; 'I' for Inactive)
REMARK    1  A    between atoms: _1  and  _3
REMARK    2  A    between atoms: _3  and  _4
REMARK    3  A    between atoms: _3  and  _6
REMARK    4  A    between atoms: _10  and  _11
REMARK    5  A    between atoms: _16  and  _18
REMARK    6  A    between atoms: _18  and  _19
REMARK    7  A    between atoms: _18  and  _21
REMARK    8  A    between atoms: _21  and  _22
REMARK    9  A    between atoms: _28  and  _30
REMARK   10  A    between atoms: _30  and  _31
REMARK   11  A    between atoms: _30  and  _33
REMARK   12  A    between atoms: _36  and  _38
REMARK   13  A    between atoms: _38  and  _39
REMARK   14  A    between atoms: _38  and  _41
REMARK   15  A    between atoms: _41  and  _42
REMARK   16  A    between atoms: _45  and  _47
REMARK   17  A    between atoms: _47  and  _48
REMARK   18  A    between atoms: _47  and  _50
REMARK   19  A    between atoms: _50  and  _51
REMARK   20  A    between atoms: _54  and  _56
REMARK   21  A    between atoms: _56  and  _57
REMARK   22  A    between atoms: _56  and  _59
REMARK   23  A    between atoms: _59  and  _60
REMARK   24  A    between atoms: _60  and  _61
REMARK   25  A    between atoms: _64  and  _66
REMARK   26  A    between atoms: _66  and  _67
REMARK   27  A    between atoms: _66  and  _69
REMARK   28  A    between atoms: _69  and  _70
REMARK   29  A    between atoms: _73  and  _75
REMARK   30  A    between atoms: _75  and  _76
REMARK   31  A    between atoms: _79  and  _80
REMARK   32  A    between atoms: _85  and  _87
REMARK   33  A    between atoms: _87  and  _88
REMARK   34  A    between atoms: _87  and  _90
REMARK   35  A    between atoms: _90  and  _91
REMARK   36  A    between atoms: _94  and  _96
REMARK   37  A    between atoms: _96  and  _97
REMARK   38  A    between atoms: _100  and  _102
REMARK   39  A    between atoms: _102  and  _103
REMARK   40  A    between atoms: _102  and  _105
REMARK   41  A    between atoms: _105  and  _106
REMARK   42  A    between atoms: _109  and  _111
REMARK   43  A    between atoms: _111  and  _112
REMARK   44  A    between atoms: _114  and  _116
REMARK   45  A    between atoms: _116  and  _117
REMARK   46  A    between atoms: _116  and  _119
REMARK   47  A    between atoms: _119  and  _120
REMARK   48  A    between atoms: _123  and  _125
REMARK   49  A    between atoms: _125  and  _126
REMARK   50  A    between atoms: _125  and  _128
REMARK   51  A    between atoms: _128  and  _129
REMARK   52  A    between atoms: _132  and  _134
REMARK   53  A    between atoms: _134  and  _135
REMARK   54  A    between atoms: _134  and  _137
REMARK   55  A    between atoms: _137  and  _138
REMARK   56  A    between atoms: _143  and  _145
REMARK   57  A    between atoms: _145  and  _146
REMARK   58  A    between atoms: _148  and  _150
REMARK   59  A    between atoms: _150  and  _151
REMARK   60  A    between atoms: _150  and  _153
REMARK   61  A    between atoms: _153  and  _154
REMARK   62  A    between atoms: _157  and  _159
REMARK   63  A    between atoms: _159  and  _160
REMARK   64  A    between atoms: _159  and  _162
REMARK   65  A    between atoms: _162  and  _163
REMARK   66  A    between atoms: _166  and  _168
REMARK   67  A    between atoms: _168  and  _169
REMARK   68  A    between atoms: _168  and  _171
REMARK   69  A    between atoms: _171  and  _172
REMARK   70  A    between atoms: _172  and  _173
REMARK   71  A    between atoms: _175  and  _177
REMARK   72  A    between atoms: _177  and  _178
REMARK   73  A    between atoms: _177  and  _180
REMARK   74  A    between atoms: _180  and  _181
REMARK   75  A    between atoms: _186  and  _187
REMARK   76  A    between atoms: _189  and  _191
REMARK   77  A    between atoms: _191  and  _192
REMARK   78  A    between atoms: _191  and  _194
REMARK   79  A    between atoms: _194  and  _195
REMARK   80  A    between atoms: _198  and  _200
REMARK   81  A    between atoms: _200  and  _201
REMARK   82  A    between atoms: _200  and  _203
REMARK   83  A    between atoms: _206  and  _208
REMARK   84  A    between atoms: _208  and  _209
REMARK   85  A    between atoms: _212  and  _214
REMARK   86  A    between atoms: _214  and  _215
REMARK   87  A    between atoms: _214  and  _217
REMARK   88  A    between atoms: _217  and  _218
REMARK   89  A    between atoms: _221  and  _223
REMARK   90  A    between atoms: _223  and  _224
REMARK   91  A    between atoms: _223  and  _226
REMARK   92  A    between atoms: _229  and  _231
REMARK   93  A    between atoms: _231  and  _232
REMARK   94  A    between atoms: _231  and  _234
REMARK   95  A    between atoms: _234  and  _235
REMARK   96  A    between atoms: _238  and  _240
REMARK   97  A    between atoms: _240  and  _241
REMARK   98  A    between atoms: _240  and  _243
REMARK   99  A    between atoms: _243  and  _244
REMARK  100  A    between atoms: _250  and  _252
REMARK  101  A    between atoms: _252  and  _253
REMARK  102  A    between atoms: _252  and  _255
REMARK  103  A    between atoms: _255  and  _256
REMARK  104  A    between atoms: _259  and  _261
REMARK  105  A    between atoms: _261  and  _262
REMARK  106  A    between atoms: _261  and  _264
REMARK  107  A    between atoms: _266  and  _268
REMARK  108  A    between atoms: _268  and  _269
REMARK  109  A    between atoms: _268  and  _271
REMARK  110  A    between atoms: _271  and  _272
REMARK  111  A    between atoms: _277  and  _278
REMARK  112  A    between atoms: _280  and  _282
REMARK  113  A    between atoms: _282  and  _283
REMARK  114  A    between atoms: _282  and  _285
REMARK  115  A    between atoms: _285  and  _286
REMARK  116  A    between atoms: _291  and  _292
REMARK  117  A    between atoms: _294  and  _296
REMARK  118  A    between atoms: _296  and  _297
REMARK  119  A    between atoms: _296  and  _299
REMARK  120  A    between atoms: _299  and  _300
REMARK  121  A    between atoms: _303  and  _305
REMARK  122  A    between atoms: _305  and  _306
REMARK  123  A    between atoms: _305  and  _308
REMARK  124  A    between atoms: _308  and  _309
REMARK  125  A    between atoms: _312  and  _314
REMARK  126  A    between atoms: _314  and  _315
REMARK  127  A    between atoms: _314  and  _317
REMARK  128  A    between atoms: _317  and  _318
REMARK  129  A    between atoms: _320  and  _322
REMARK  130  A    between atoms: _322  and  _323
REMARK  131  A    between atoms: _322  and  _325
REMARK  132  A    between atoms: _325  and  _326
REMARK  133  A    between atoms: _326  and  _327
REMARK  134  A    between atoms: _327  and  _328
REMARK  135  A    between atoms: _337  and  _339
REMARK  136  A    between atoms: _339  and  _340
REMARK  137  A    between atoms: _342  and  _344
REMARK  138  A    between atoms: _344  and  _345
REMARK  139  A    between atoms: _344  and  _347
REMARK  140  A    between atoms: _350  and  _352
REMARK  141  A    between atoms: _352  and  _353
REMARK  142  A    between atoms: _352  and  _355
REMARK  143  A    between atoms: _355  and  _356
REMARK  144  A    between atoms: _359  and  _361
REMARK  145  A    between atoms: _361  and  _362
REMARK  146  A    between atoms: _364  and  _366
REMARK  147  A    between atoms: _366  and  _367
REMARK  148  A    between atoms: _366  and  _369
REMARK  149  A    between atoms: _369  and  _370
REMARK  150  A    between atoms: _373  and  _375
REMARK  151  A    between atoms: _375  and  _376
REMARK  152  A    between atoms: _375  and  _378
REMARK  153  A    between atoms: _378  and  _379
REMARK  154  A    between atoms: _379  and  _380
REMARK  155  A    between atoms: _385  and  _387
REMARK  156  A    between atoms: _387  and  _388
REMARK  157  A    between atoms: _390  and  _392
REMARK  158  A    between atoms: _392  and  _393
REMARK  159  A    between atoms: _392  and  _395
REMARK  160  A    between atoms: _395  and  _396
REMARK  161  A    between atoms: _402  and  _404
REMARK  162  A    between atoms: _404  and  _405
REMARK  163  A    between atoms: _407  and  _409
REMARK  164  A    between atoms: _409  and  _410
REMARK  165  A    between atoms: _409  and  _412
REMARK  166  A    between atoms: _412  and  _413
REMARK  167  A    between atoms: _416  and  _418
REMARK  168  A    between atoms: _418  and  _419
REMARK  169  A    between atoms: _418  and  _421
REMARK  170  A    between atoms: _421  and  _422
REMARK  171  A    between atoms: _424  and  _426
REMARK  172  A    between atoms: _426  and  _427
REMARK  173  A    between atoms: _426  and  _429
REMARK  174  A    between atoms: _429  and  _430
REMARK  175  A    between atoms: _430  and  _431
REMARK  176  A    between atoms: _436  and  _438
REMARK  177  A    between atoms: _438  and  _439
REMARK  178  A    between atoms: _438  and  _441
REMARK  179  A    between atoms: _441  and  _442
REMARK  180  A    between atoms: _445  and  _447
REMARK  181  A    between atoms: _447  and  _448
REMARK  182  A    between atoms: _447  and  _450
REMARK  183  A    between atoms: _450  and  _451
REMARK  184  A    between atoms: _453  and  _455
REMARK  185  A    between atoms: _455  and  _456
REMARK  186  A    between atoms: _458  and  _460
REMARK  187  A    between atoms: _460  and  _461
REMARK  188  A    between atoms: _460  and  _463
REMARK  189  A    between atoms: _463  and  _464
REMARK  190  A    between atoms: _466  and  _468
REMARK  191  A    between atoms: _468  and  _469
REMARK  192  A    between atoms: _472  and  _474
REMARK  193  A    between atoms: _474  and  _475
REMARK  194  A    between atoms: _474  and  _477
REMARK  195  A    between atoms: _477  and  _478
REMARK  196  A    between atoms: _481  and  _483
REMARK  197  A    between atoms: _483  and  _484
REMARK  198  A    between atoms: _483  and  _486
REMARK  199  A    between atoms: _489  and  _491
REMARK  200  A    between atoms: _491  and  _492
REMARK  201  A    between atoms: _491  and  _494
REMARK  202  A    between atoms: _494  and  _495
REMARK  203  A    between atoms: _495  and  _496
REMARK  204  A    between atoms: _496  and  _497
REMARK  205  A    between atoms: _497  and  _498
REMARK  206  A    between atoms: _502  and  _504
REMARK  207  A    between atoms: _504  and  _505
REMARK  208  A    between atoms: _504  and  _507
REMARK  209  A    between atoms: _511  and  _512
REMARK  210  A    between atoms: _517  and  _519
REMARK  211  A    between atoms: _519  and  _520
REMARK  212  A    between atoms: _519  and  _522
REMARK  213  A    between atoms: _522  and  _523
REMARK  214  A    between atoms: _523  and  _524
REMARK  215  A    between atoms: _529  and  _531
REMARK  216  A    between atoms: _531  and  _532
REMARK  217  A    between atoms: _531  and  _534
REMARK  218  A    between atoms: _534  and  _535
REMARK  219  A    between atoms: _538  and  _540
REMARK  220  A    between atoms: _540  and  _541
REMARK  221  A    between atoms: _540  and  _543
REMARK  222  A    between atoms: _543  and  _544
REMARK                            x       y       z     vdW  Elec       q    Type
REMARK                         _______ _______ _______ _____ _____    ______ ____
ROOT
ATOM      1  O   HOH     1      44.455  28.387   9.575  0.00  0.00    +0.000 OA
ENDROOT
TORSDOF 0
REMARK  Name = ../refined-set-2016/2clh/2clh_pocket.pdb
REMARK  222 active torsions:
REMARK  status: ('A' for Active; 'I' for Inactive)
REMARK    1  A    between atoms: _1  and  _3
REMARK    2  A    between atoms: _3  and  _4
REMARK    3  A    between atoms: _3  and  _6
REMARK    4  A    between atoms: _10  and  _11
REMARK    5  A    between atoms: _16  and  _18
REMARK    6  A    between atoms: _18  and  _19
REMARK    7  A    between atoms: _18  and  _21
REMARK    8  A    between atoms: _21  and  _22
REMARK    9  A    between atoms: _28  and  _30
REMARK   10  A    between atoms: _30  and  _31
REMARK   11  A    between atoms: _30  and  _33
REMARK   12  A    between atoms: _36  and  _38
REMARK   13  A    between atoms: _38  and  _39
REMARK   14  A    between atoms: _38  and  _41
REMARK   15  A    between atoms: _41  and  _42
REMARK   16  A    between atoms: _45  and  _47
REMARK   17  A    between atoms: _47  and  _48
REMARK   18  A    between atoms: _47  and  _50
REMARK   19  A    between atoms: _50  and  _51
REMARK   20  A    between atoms: _54  and  _56
REMARK   21  A    between atoms: _56  and  _57
REMARK   22  A    between atoms: _56  and  _59
REMARK   23  A    between atoms: _59  and  _60
REMARK   24  A    between atoms: _60  and  _61
REMARK   25  A    between atoms: _64  and  _66
REMARK   26  A    between atoms: _66  and  _67
REMARK   27  A    between atoms: _66  and  _69
REMARK   28  A    between atoms: _69  and  _70
REMARK   29  A    between atoms: _73  and  _75
REMARK   30  A    between atoms: _75  and  _76
REMARK   31  A    between atoms: _79  and  _80
REMARK   32  A    between atoms: _85  and  _87
REMARK   33  A    between atoms: _87  and  _88
REMARK   34  A    between atoms: _87  and  _90
REMARK   35  A    between atoms: _90  and  _91
REMARK   36  A    between atoms: _94  and  _96
REMARK   37  A    between atoms: _96  and  _97
REMARK   38  A    between atoms: _100  and  _102
REMARK   39  A    between atoms: _102  and  _103
REMARK   40  A    between atoms: _102  and  _105
REMARK   41  A    between atoms: _105  and  _106
REMARK   42  A    between atoms: _109  and  _111
REMARK   43  A    between atoms: _111  and  _112
REMARK   44  A    between atoms: _114  and  _116
REMARK   45  A    between atoms: _116  and  _117
REMARK   46  A    between atoms: _116  and  _119
REMARK   47  A    between atoms: _119  and  _120
REMARK   48  A    between atoms: _123  and  _125
REMARK   49  A    between atoms: _125  and  _126
REMARK   50  A    between atoms: _125  and  _128
REMARK   51  A    between atoms: _128  and  _129
REMARK   52  A    between atoms: _132  and  _134
REMARK   53  A    between atoms: _134  and  _135
REMARK   54  A    between atoms: _134  and  _137
REMARK   55  A    between atoms: _137  and  _138
REMARK   56  A    between atoms: _143  and  _145
REMARK   57  A    between atoms: _145  and  _146
REMARK   58  A    between atoms: _148  and  _150
REMARK   59  A    between atoms: _150  and  _151
REMARK   60  A    between atoms: _150  and  _153
REMARK   61  A    between atoms: _153  and  _154
REMARK   62  A    between atoms: _157  and  _159
REMARK   63  A    between atoms: _159  and  _160
REMARK   64  A    between atoms: _159  and  _162
REMARK   65  A    between atoms: _162  and  _163
REMARK   66  A    between atoms: _166  and  _168
REMARK   67  A    between atoms: _168  and  _169
REMARK   68  A    between atoms: _168  and  _171
REMARK   69  A    between atoms: _171  and  _172
REMARK   70  A    between atoms: _172  and  _173
REMARK   71  A    between atoms: _175  and  _177
REMARK   72  A    between atoms: _177  and  _178
REMARK   73  A    between atoms: _177  and  _180
REMARK   74  A    between atoms: _180  and  _181
REMARK   75  A    between atoms: _186  and  _187
REMARK   76  A    between atoms: _189  and  _191
REMARK   77  A    between atoms: _191  and  _192
REMARK   78  A    between atoms: _191  and  _194
REMARK   79  A    between atoms: _194  and  _195
REMARK   80  A    between atoms: _198  and  _200
REMARK   81  A    between atoms: _200  and  _201
REMARK   82  A    between atoms: _200  and  _203
REMARK   83  A    between atoms: _206  and  _208
REMARK   84  A    between atoms: _208  and  _209
REMARK   85  A    between atoms: _212  and  _214
REMARK   86  A    between atoms: _214  and  _215
REMARK   87  A    between atoms: _214  and  _217
REMARK   88  A    between atoms: _217  and  _218
REMARK   89  A    between atoms: _221  and  _223
REMARK   90  A    between atoms: _223  and  _224
REMARK   91  A    between atoms: _223  and  _226
REMARK   92  A    between atoms: _229  and  _231
REMARK   93  A    between atoms: _231  and  _232
REMARK   94  A    between atoms: _231  and  _234
REMARK   95  A    between atoms: _234  and  _235
REMARK   96  A    between atoms: _238  and  _240
REMARK   97  A    between atoms: _240  and  _241
REMARK   98  A    between atoms: _240  and  _243
REMARK   99  A    between atoms: _243  and  _244
REMARK  100  A    between atoms: _250  and  _252
REMARK  101  A    between atoms: _252  and  _253
REMARK  102  A    between atoms: _252  and  _255
REMARK  103  A    between atoms: _255  and  _256
REMARK  104  A    between atoms: _259  and  _261
REMARK  105  A    between atoms: _261  and  _262
REMARK  106  A    between atoms: _261  and  _264
REMARK  107  A    between atoms: _266  and  _268
REMARK  108  A    between atoms: _268  and  _269
REMARK  109  A    between atoms: _268  and  _271
REMARK  110  A    between atoms: _271  and  _272
REMARK  111  A    between atoms: _277  and  _278
REMARK  112  A    between atoms: _280  and  _282
REMARK  113  A    between atoms: _282  and  _283
REMARK  114  A    between atoms: _282  and  _285
REMARK  115  A    between atoms: _285  and  _286
REMARK  116  A    between atoms: _291  and  _292
REMARK  117  A    between atoms: _294  and  _296
REMARK  118  A    between atoms: _296  and  _297
REMARK  119  A    between atoms: _296  and  _299
REMARK  120  A    between atoms: _299  and  _300
REMARK  121  A    between atoms: _303  and  _305
REMARK  122  A    between atoms: _305  and  _306
REMARK  123  A    between atoms: _305  and  _308
REMARK  124  A    between atoms: _308  and  _309
REMARK  125  A    between atoms: _312  and  _314
REMARK  126  A    between atoms: _314  and  _315
REMARK  127  A    between atoms: _314  and  _317
REMARK  128  A    between atoms: _317  and  _318
REMARK  129  A    between atoms: _320  and  _322
REMARK  130  A    between atoms: _322  and  _323
REMARK  131  A    between atoms: _322  and  _325
REMARK  132  A    between atoms: _325  and  _326
REMARK  133  A    between atoms: _326  and  _327
REMARK  134  A    between atoms: _327  and  _328
REMARK  135  A    between atoms: _337  and  _339
REMARK  136  A    between atoms: _339  and  _340
REMARK  137  A    between atoms: _342  and  _344
REMARK  138  A    between atoms: _344  and  _345
REMARK  139  A    between atoms: _344  and  _347
REMARK  140  A    between atoms: _350  and  _352
REMARK  141  A    between atoms: _352  and  _353
REMARK  142  A    between atoms: _352  and  _355
REMARK  143  A    between atoms: _355  and  _356
REMARK  144  A    between atoms: _359  and  _361
REMARK  145  A    between atoms: _361  and  _362
REMARK  146  A    between atoms: _364  and  _366
REMARK  147  A    between atoms: _366  and  _367
REMARK  148  A    between atoms: _366  and  _369
REMARK  149  A    between atoms: _369  and  _370
REMARK  150  A    between atoms: _373  and  _375
REMARK  151  A    between atoms: _375  and  _376
REMARK  152  A    between atoms: _375  and  _378
REMARK  153  A    between atoms: _378  and  _379
REMARK  154  A    between atoms: _379  and  _380
REMARK  155  A    between atoms: _385  and  _387
REMARK  156  A    between atoms: _387  and  _388
REMARK  157  A    between atoms: _390  and  _392
REMARK  158  A    between atoms: _392  and  _393
REMARK  159  A    between atoms: _392  and  _395
REMARK  160  A    between atoms: _395  and  _396
REMARK  161  A    between atoms: _402  and  _404
REMARK  162  A    between atoms: _404  and  _405
REMARK  163  A    between atoms: _407  and  _409
REMARK  164  A    between atoms: _409  and  _410
REMARK  165  A    between atoms: _409  and  _412
REMARK  166  A    between atoms: _412  and  _413
REMARK  167  A    between atoms: _416  and  _418
REMARK  168  A    between atoms: _418  and  _419
REMARK  169  A    between atoms: _418  and  _421
REMARK  170  A    between atoms: _421  and  _422
REMARK  171  A    between atoms: _424  and  _426
REMARK  172  A    between atoms: _426  and  _427
REMARK  173  A    between atoms: _426  and  _429
REMARK  174  A    between atoms: _429  and  _430
REMARK  175  A    between atoms: _430  and  _431
REMARK  176  A    between atoms: _436  and  _438
REMARK  177  A    between atoms: _438  and  _439
REMARK  178  A    between atoms: _438  and  _441
REMARK  179  A    between atoms: _441  and  _442
REMARK  180  A    between atoms: _445  and  _447
REMARK  181  A    between atoms: _447  and  _448
REMARK  182  A    between atoms: _447  and  _450
REMARK  183  A    between atoms: _450  and  _451
REMARK  184  A    between atoms: _453  and  _455
REMARK  185  A    between atoms: _455  and  _456
REMARK  186  A    between atoms: _458  and  _460
REMARK  187  A    between atoms: _460  and  _461
REMARK  188  A    between atoms: _460  and  _463
REMARK  189  A    between atoms: _463  and  _464
REMARK  190  A    between atoms: _466  and  _468
REMARK  191  A    between atoms: _468  and  _469
REMARK  192  A    between atoms: _472  and  _474
REMARK  193  A    between atoms: _474  and  _475
REMARK  194  A    between atoms: _474  and  _477
REMARK  195  A    between atoms: _477  and  _478
REMARK  196  A    between atoms: _481  and  _483
REMARK  197  A    between atoms: _483  and  _484
REMARK  198  A    between atoms: _483  and  _486
REMARK  199  A    between atoms: _489  and  _491
REMARK  200  A    between atoms: _491  and  _492
REMARK  201  A    between atoms: _491  and  _494
REMARK  202  A    between atoms: _494  and  _495
REMARK  203  A    between atoms: _495  and  _496
REMARK  204  A    between atoms: _496  and  _497
REMARK  205  A    between atoms: _497  and  _498
REMARK  206  A    between atoms: _502  and  _504
REMARK  207  A    between atoms: _504  and  _505
REMARK  208  A    between atoms: _504  and  _507
REMARK  209  A    between atoms: _511  and  _512
REMARK  210  A    between atoms: _517  and  _519
REMARK  211  A    between atoms: _519  and  _520
REMARK  212  A    between atoms: _519  and  _522
REMARK  213  A    between atoms: _522  and  _523
REMARK  214  A    between atoms: _523  and  _524
REMARK  215  A    between atoms: _529  and  _531
REMARK  216  A    between atoms: _531  and  _532
REMARK  217  A    between atoms: _531  and  _534
REMARK  218  A    between atoms: _534  and  _535
REMARK  219  A    between atoms: _538  and  _540
REMARK  220  A    between atoms: _540  and  _541
REMARK  221  A    between atoms: _540  and  _543
REMARK  222  A    between atoms: _543  and  _544
REMARK                            x       y       z     vdW  Elec       q    Type
REMARK                         _______ _______ _______ _____ _____    ______ ____
ROOT
ATOM      1  O   HOH     1      43.220  26.199   4.415  0.00  0.00    +0.000 OA
ENDROOT
TORSDOF 0
REMARK  Name = ../refined-set-2016/2clh/2clh_pocket.pdb
REMARK  222 active torsions:
REMARK  status: ('A' for Active; 'I' for Inactive)
REMARK    1  A    between atoms: _1  and  _3
REMARK    2  A    between atoms: _3  and  _4
REMARK    3  A    between atoms: _3  and  _6
REMARK    4  A    between atoms: _10  and  _11
REMARK    5  A    between atoms: _16  and  _18
REMARK    6  A    between atoms: _18  and  _19
REMARK    7  A    between atoms: _18  and  _21
REMARK    8  A    between atoms: _21  and  _22
REMARK    9  A    between atoms: _28  and  _30
REMARK   10  A    between atoms: _30  and  _31
REMARK   11  A    between atoms: _30  and  _33
REMARK   12  A    between atoms: _36  and  _38
REMARK   13  A    between atoms: _38  and  _39
REMARK   14  A    between atoms: _38  and  _41
REMARK   15  A    between atoms: _41  and  _42
REMARK   16  A    between atoms: _45  and  _47
REMARK   17  A    between atoms: _47  and  _48
REMARK   18  A    between atoms: _47  and  _50
REMARK   19  A    between atoms: _50  and  _51
REMARK   20  A    between atoms: _54  and  _56
REMARK   21  A    between atoms: _56  and  _57
REMARK   22  A    between atoms: _56  and  _59
REMARK   23  A    between atoms: _59  and  _60
REMARK   24  A    between atoms: _60  and  _61
REMARK   25  A    between atoms: _64  and  _66
REMARK   26  A    between atoms: _66  and  _67
REMARK   27  A    between atoms: _66  and  _69
REMARK   28  A    between atoms: _69  and  _70
REMARK   29  A    between atoms: _73  and  _75
REMARK   30  A    between atoms: _75  and  _76
REMARK   31  A    between atoms: _79  and  _80
REMARK   32  A    between atoms: _85  and  _87
REMARK   33  A    between atoms: _87  and  _88
REMARK   34  A    between atoms: _87  and  _90
REMARK   35  A    between atoms: _90  and  _91
REMARK   36  A    between atoms: _94  and  _96
REMARK   37  A    between atoms: _96  and  _97
REMARK   38  A    between atoms: _100  and  _102
REMARK   39  A    between atoms: _102  and  _103
REMARK   40  A    between atoms: _102  and  _105
REMARK   41  A    between atoms: _105  and  _106
REMARK   42  A    between atoms: _109  and  _111
REMARK   43  A    between atoms: _111  and  _112
REMARK   44  A    between atoms: _114  and  _116
REMARK   45  A    between atoms: _116  and  _117
REMARK   46  A    between atoms: _116  and  _119
REMARK   47  A    between atoms: _119  and  _120
REMARK   48  A    between atoms: _123  and  _125
REMARK   49  A    between atoms: _125  and  _126
REMARK   50  A    between atoms: _125  and  _128
REMARK   51  A    between atoms: _128  and  _129
REMARK   52  A    between atoms: _132  and  _134
REMARK   53  A    between atoms: _134  and  _135
REMARK   54  A    between atoms: _134  and  _137
REMARK   55  A    between atoms: _137  and  _138
REMARK   56  A    between atoms: _143  and  _145
REMARK   57  A    between atoms: _145  and  _146
REMARK   58  A    between atoms: _148  and  _150
REMARK   59  A    between atoms: _150  and  _151
REMARK   60  A    between atoms: _150  and  _153
REMARK   61  A    between atoms: _153  and  _154
REMARK   62  A    between atoms: _157  and  _159
REMARK   63  A    between atoms: _159  and  _160
REMARK   64  A    between atoms: _159  and  _162
REMARK   65  A    between atoms: _162  and  _163
REMARK   66  A    between atoms: _166  and  _168
REMARK   67  A    between atoms: _168  and  _169
REMARK   68  A    between atoms: _168  and  _171
REMARK   69  A    between atoms: _171  and  _172
REMARK   70  A    between atoms: _172  and  _173
REMARK   71  A    between atoms: _175  and  _177
REMARK   72  A    between atoms: _177  and  _178
REMARK   73  A    between atoms: _177  and  _180
REMARK   74  A    between atoms: _180  and  _181
REMARK   75  A    between atoms: _186  and  _187
REMARK   76  A    between atoms: _189  and  _191
REMARK   77  A    between atoms: _191  and  _192
REMARK   78  A    between atoms: _191  and  _194
REMARK   79  A    between atoms: _194  and  _195
REMARK   80  A    between atoms: _198  and  _200
REMARK   81  A    between atoms: _200  and  _201
REMARK   82  A    between atoms: _200  and  _203
REMARK   83  A    between atoms: _206  and  _208
REMARK   84  A    between atoms: _208  and  _209
REMARK   85  A    between atoms: _212  and  _214
REMARK   86  A    between atoms: _214  and  _215
REMARK   87  A    between atoms: _214  and  _217
REMARK   88  A    between atoms: _217  and  _218
REMARK   89  A    between atoms: _221  and  _223
REMARK   90  A    between atoms: _223  and  _224
REMARK   91  A    between atoms: _223  and  _226
REMARK   92  A    between atoms: _229  and  _231
REMARK   93  A    between atoms: _231  and  _232
REMARK   94  A    between atoms: _231  and  _234
REMARK   95  A    between atoms: _234  and  _235
REMARK   96  A    between atoms: _238  and  _240
REMARK   97  A    between atoms: _240  and  _241
REMARK   98  A    between atoms: _240  and  _243
REMARK   99  A    between atoms: _243  and  _244
REMARK  100  A    between atoms: _250  and  _252
REMARK  101  A    between atoms: _252  and  _253
REMARK  102  A    between atoms: _252  and  _255
REMARK  103  A    between atoms: _255  and  _256
REMARK  104  A    between atoms: _259  and  _261
REMARK  105  A    between atoms: _261  and  _262
REMARK  106  A    between atoms: _261  and  _264
REMARK  107  A    between atoms: _266  and  _268
REMARK  108  A    between atoms: _268  and  _269
REMARK  109  A    between atoms: _268  and  _271
REMARK  110  A    between atoms: _271  and  _272
REMARK  111  A    between atoms: _277  and  _278
REMARK  112  A    between atoms: _280  and  _282
REMARK  113  A    between atoms: _282  and  _283
REMARK  114  A    between atoms: _282  and  _285
REMARK  115  A    between atoms: _285  and  _286
REMARK  116  A    between atoms: _291  and  _292
REMARK  117  A    between atoms: _294  and  _296
REMARK  118  A    between atoms: _296  and  _297
REMARK  119  A    between atoms: _296  and  _299
REMARK  120  A    between atoms: _299  and  _300
REMARK  121  A    between atoms: _303  and  _305
REMARK  122  A    between atoms: _305  and  _306
REMARK  123  A    between atoms: _305  and  _308
REMARK  124  A    between atoms: _308  and  _309
REMARK  125  A    between atoms: _312  and  _314
REMARK  126  A    between atoms: _314  and  _315
REMARK  127  A    between atoms: _314  and  _317
REMARK  128  A    between atoms: _317  and  _318
REMARK  129  A    between atoms: _320  and  _322
REMARK  130  A    between atoms: _322  and  _323
REMARK  131  A    between atoms: _322  and  _325
REMARK  132  A    between atoms: _325  and  _326
REMARK  133  A    between atoms: _326  and  _327
REMARK  134  A    between atoms: _327  and  _328
REMARK  135  A    between atoms: _337  and  _339
REMARK  136  A    between atoms: _339  and  _340
REMARK  137  A    between atoms: _342  and  _344
REMARK  138  A    between atoms: _344  and  _345
REMARK  139  A    between atoms: _344  and  _347
REMARK  140  A    between atoms: _350  and  _352
REMARK  141  A    between atoms: _352  and  _353
REMARK  142  A    between atoms: _352  and  _355
REMARK  143  A    between atoms: _355  and  _356
REMARK  144  A    between atoms: _359  and  _361
REMARK  145  A    between atoms: _361  and  _362
REMARK  146  A    between atoms: _364  and  _366
REMARK  147  A    between atoms: _366  and  _367
REMARK  148  A    between atoms: _366  and  _369
REMARK  149  A    between atoms: _369  and  _370
REMARK  150  A    between atoms: _373  and  _375
REMARK  151  A    between atoms: _375  and  _376
REMARK  152  A    between atoms: _375  and  _378
REMARK  153  A    between atoms: _378  and  _379
REMARK  154  A    between atoms: _379  and  _380
REMARK  155  A    between atoms: _385  and  _387
REMARK  156  A    between atoms: _387  and  _388
REMARK  157  A    between atoms: _390  and  _392
REMARK  158  A    between atoms: _392  and  _393
REMARK  159  A    between atoms: _392  and  _395
REMARK  160  A    between atoms: _395  and  _396
REMARK  161  A    between atoms: _402  and  _404
REMARK  162  A    between atoms: _404  and  _405
REMARK  163  A    between atoms: _407  and  _409
REMARK  164  A    between atoms: _409  and  _410
REMARK  165  A    between atoms: _409  and  _412
REMARK  166  A    between atoms: _412  and  _413
REMARK  167  A    between atoms: _416  and  _418
REMARK  168  A    between atoms: _418  and  _419
REMARK  169  A    between atoms: _418  and  _421
REMARK  170  A    between atoms: _421  and  _422
REMARK  171  A    between atoms: _424  and  _426
REMARK  172  A    between atoms: _426  and  _427
REMARK  173  A    between atoms: _426  and  _429
REMARK  174  A    between atoms: _429  and  _430
REMARK  175  A    between atoms: _430  and  _431
REMARK  176  A    between atoms: _436  and  _438
REMARK  177  A    between atoms: _438  and  _439
REMARK  178  A    between atoms: _438  and  _441
REMARK  179  A    between atoms: _441  and  _442
REMARK  180  A    between atoms: _445  and  _447
REMARK  181  A    between atoms: _447  and  _448
REMARK  182  A    between atoms: _447  and  _450
REMARK  183  A    between atoms: _450  and  _451
REMARK  184  A    between atoms: _453  and  _455
REMARK  185  A    between atoms: _455  and  _456
REMARK  186  A    between atoms: _458  and  _460
REMARK  187  A    between atoms: _460  and  _461
REMARK  188  A    between atoms: _460  and  _463
REMARK  189  A    between atoms: _463  and  _464
REMARK  190  A    between atoms: _466  and  _468
REMARK  191  A    between atoms: _468  and  _469
REMARK  192  A    between atoms: _472  and  _474
REMARK  193  A    between atoms: _474  and  _475
REMARK  194  A    between atoms: _474  and  _477
REMARK  195  A    between atoms: _477  and  _478
REMARK  196  A    between atoms: _481  and  _483
REMARK  197  A    between atoms: _483  and  _484
REMARK  198  A    between atoms: _483  and  _486
REMARK  199  A    between atoms: _489  and  _491
REMARK  200  A    between atoms: _491  and  _492
REMARK  201  A    between atoms: _491  and  _494
REMARK  202  A    between atoms: _494  and  _495
REMARK  203  A    between atoms: _495  and  _496
REMARK  204  A    between atoms: _496  and  _497
REMARK  205  A    between atoms: _497  and  _498
REMARK  206  A    between atoms: _502  and  _504
REMARK  207  A    between atoms: _504  and  _505
REMARK  208  A    between atoms: _504  and  _507
REMARK  209  A    between atoms: _511  and  _512
REMARK  210  A    between atoms: _517  and  _519
REMARK  211  A    between atoms: _519  and  _520
REMARK  212  A    between atoms: _519  and  _522
REMARK  213  A    between atoms: _522  and  _523
REMARK  214  A    between atoms: _523  and  _524
REMARK  215  A    between atoms: _529  and  _531
REMARK  216  A    between atoms: _531  and  _532
REMARK  217  A    between atoms: _531  and  _534
REMARK  218  A    between atoms: _534  and  _535
REMARK  219  A    between atoms: _538  and  _540
REMARK  220  A    between atoms: _540  and  _541
REMARK  221  A    between atoms: _540  and  _543
REMARK  222  A    between atoms: _543  and  _544
REMARK                            x       y       z     vdW  Elec       q    Type
REMARK                         _______ _______ _______ _____ _____    ______ ____
ROOT
ATOM      1  O   HOH     1      51.757  33.031   5.744  0.00  0.00    +0.000 OA
ENDROOT
TORSDOF 0
REMARK  Name = ../refined-set-2016/2clh/2clh_pocket.pdb
REMARK  222 active torsions:
REMARK  status: ('A' for Active; 'I' for Inactive)
REMARK    1  A    between atoms: _1  and  _3
REMARK    2  A    between atoms: _3  and  _4
REMARK    3  A    between atoms: _3  and  _6
REMARK    4  A    between atoms: _10  and  _11
REMARK    5  A    between atoms: _16  and  _18
REMARK    6  A    between atoms: _18  and  _19
REMARK    7  A    between atoms: _18  and  _21
REMARK    8  A    between atoms: _21  and  _22
REMARK    9  A    between atoms: _28  and  _30
REMARK   10  A    between atoms: _30  and  _31
REMARK   11  A    between atoms: _30  and  _33
REMARK   12  A    between atoms: _36  and  _38
REMARK   13  A    between atoms: _38  and  _39
REMARK   14  A    between atoms: _38  and  _41
REMARK   15  A    between atoms: _41  and  _42
REMARK   16  A    between atoms: _45  and  _47
REMARK   17  A    between atoms: _47  and  _48
REMARK   18  A    between atoms: _47  and  _50
REMARK   19  A    between atoms: _50  and  _51
REMARK   20  A    between atoms: _54  and  _56
REMARK   21  A    between atoms: _56  and  _57
REMARK   22  A    between atoms: _56  and  _59
REMARK   23  A    between atoms: _59  and  _60
REMARK   24  A    between atoms: _60  and  _61
REMARK   25  A    between atoms: _64  and  _66
REMARK   26  A    between atoms: _66  and  _67
REMARK   27  A    between atoms: _66  and  _69
REMARK   28  A    between atoms: _69  and  _70
REMARK   29  A    between atoms: _73  and  _75
REMARK   30  A    between atoms: _75  and  _76
REMARK   31  A    between atoms: _79  and  _80
REMARK   32  A    between atoms: _85  and  _87
REMARK   33  A    between atoms: _87  and  _88
REMARK   34  A    between atoms: _87  and  _90
REMARK   35  A    between atoms: _90  and  _91
REMARK   36  A    between atoms: _94  and  _96
REMARK   37  A    between atoms: _96  and  _97
REMARK   38  A    between atoms: _100  and  _102
REMARK   39  A    between atoms: _102  and  _103
REMARK   40  A    between atoms: _102  and  _105
REMARK   41  A    between atoms: _105  and  _106
REMARK   42  A    between atoms: _109  and  _111
REMARK   43  A    between atoms: _111  and  _112
REMARK   44  A    between atoms: _114  and  _116
REMARK   45  A    between atoms: _116  and  _117
REMARK   46  A    between atoms: _116  and  _119
REMARK   47  A    between atoms: _119  and  _120
REMARK   48  A    between atoms: _123  and  _125
REMARK   49  A    between atoms: _125  and  _126
REMARK   50  A    between atoms: _125  and  _128
REMARK   51  A    between atoms: _128  and  _129
REMARK   52  A    between atoms: _132  and  _134
REMARK   53  A    between atoms: _134  and  _135
REMARK   54  A    between atoms: _134  and  _137
REMARK   55  A    between atoms: _137  and  _138
REMARK   56  A    between atoms: _143  and  _145
REMARK   57  A    between atoms: _145  and  _146
REMARK   58  A    between atoms: _148  and  _150
REMARK   59  A    between atoms: _150  and  _151
REMARK   60  A    between atoms: _150  and  _153
REMARK   61  A    between atoms: _153  and  _154
REMARK   62  A    between atoms: _157  and  _159
REMARK   63  A    between atoms: _159  and  _160
REMARK   64  A    between atoms: _159  and  _162
REMARK   65  A    between atoms: _162  and  _163
REMARK   66  A    between atoms: _166  and  _168
REMARK   67  A    between atoms: _168  and  _169
REMARK   68  A    between atoms: _168  and  _171
REMARK   69  A    between atoms: _171  and  _172
REMARK   70  A    between atoms: _172  and  _173
REMARK   71  A    between atoms: _175  and  _177
REMARK   72  A    between atoms: _177  and  _178
REMARK   73  A    between atoms: _177  and  _180
REMARK   74  A    between atoms: _180  and  _181
REMARK   75  A    between atoms: _186  and  _187
REMARK   76  A    between atoms: _189  and  _191
REMARK   77  A    between atoms: _191  and  _192
REMARK   78  A    between atoms: _191  and  _194
REMARK   79  A    between atoms: _194  and  _195
REMARK   80  A    between atoms: _198  and  _200
REMARK   81  A    between atoms: _200  and  _201
REMARK   82  A    between atoms: _200  and  _203
REMARK   83  A    between atoms: _206  and  _208
REMARK   84  A    between atoms: _208  and  _209
REMARK   85  A    between atoms: _212  and  _214
REMARK   86  A    between atoms: _214  and  _215
REMARK   87  A    between atoms: _214  and  _217
REMARK   88  A    between atoms: _217  and  _218
REMARK   89  A    between atoms: _221  and  _223
REMARK   90  A    between atoms: _223  and  _224
REMARK   91  A    between atoms: _223  and  _226
REMARK   92  A    between atoms: _229  and  _231
REMARK   93  A    between atoms: _231  and  _232
REMARK   94  A    between atoms: _231  and  _234
REMARK   95  A    between atoms: _234  and  _235
REMARK   96  A    between atoms: _238  and  _240
REMARK   97  A    between atoms: _240  and  _241
REMARK   98  A    between atoms: _240  and  _243
REMARK   99  A    between atoms: _243  and  _244
REMARK  100  A    between atoms: _250  and  _252
REMARK  101  A    between atoms: _252  and  _253
REMARK  102  A    between atoms: _252  and  _255
REMARK  103  A    between atoms: _255  and  _256
REMARK  104  A    between atoms: _259  and  _261
REMARK  105  A    between atoms: _261  and  _262
REMARK  106  A    between atoms: _261  and  _264
REMARK  107  A    between atoms: _266  and  _268
REMARK  108  A    between atoms: _268  and  _269
REMARK  109  A    between atoms: _268  and  _271
REMARK  110  A    between atoms: _271  and  _272
REMARK  111  A    between atoms: _277  and  _278
REMARK  112  A    between atoms: _280  and  _282
REMARK  113  A    between atoms: _282  and  _283
REMARK  114  A    between atoms: _282  and  _285
REMARK  115  A    between atoms: _285  and  _286
REMARK  116  A    between atoms: _291  and  _292
REMARK  117  A    between atoms: _294  and  _296
REMARK  118  A    between atoms: _296  and  _297
REMARK  119  A    between atoms: _296  and  _299
REMARK  120  A    between atoms: _299  and  _300
REMARK  121  A    between atoms: _303  and  _305
REMARK  122  A    between atoms: _305  and  _306
REMARK  123  A    between atoms: _305  and  _308
REMARK  124  A    between atoms: _308  and  _309
REMARK  125  A    between atoms: _312  and  _314
REMARK  126  A    between atoms: _314  and  _315
REMARK  127  A    between atoms: _314  and  _317
REMARK  128  A    between atoms: _317  and  _318
REMARK  129  A    between atoms: _320  and  _322
REMARK  130  A    between atoms: _322  and  _323
REMARK  131  A    between atoms: _322  and  _325
REMARK  132  A    between atoms: _325  and  _326
REMARK  133  A    between atoms: _326  and  _327
REMARK  134  A    between atoms: _327  and  _328
REMARK  135  A    between atoms: _337  and  _339
REMARK  136  A    between atoms: _339  and  _340
REMARK  137  A    between atoms: _342  and  _344
REMARK  138  A    between atoms: _344  and  _345
REMARK  139  A    between atoms: _344  and  _347
REMARK  140  A    between atoms: _350  and  _352
REMARK  141  A    between atoms: _352  and  _353
REMARK  142  A    between atoms: _352  and  _355
REMARK  143  A    between atoms: _355  and  _356
REMARK  144  A    between atoms: _359  and  _361
REMARK  145  A    between atoms: _361  and  _362
REMARK  146  A    between atoms: _364  and  _366
REMARK  147  A    between atoms: _366  and  _367
REMARK  148  A    between atoms: _366  and  _369
REMARK  149  A    between atoms: _369  and  _370
REMARK  150  A    between atoms: _373  and  _375
REMARK  151  A    between atoms: _375  and  _376
REMARK  152  A    between atoms: _375  and  _378
REMARK  153  A    between atoms: _378  and  _379
REMARK  154  A    between atoms: _379  and  _380
REMARK  155  A    between atoms: _385  and  _387
REMARK  156  A    between atoms: _387  and  _388
REMARK  157  A    between atoms: _390  and  _392
REMARK  158  A    between atoms: _392  and  _393
REMARK  159  A    between atoms: _392  and  _395
REMARK  160  A    between atoms: _395  and  _396
REMARK  161  A    between atoms: _402  and  _404
REMARK  162  A    between atoms: _404  and  _405
REMARK  163  A    between atoms: _407  and  _409
REMARK  164  A    between atoms: _409  and  _410
REMARK  165  A    between atoms: _409  and  _412
REMARK  166  A    between atoms: _412  and  _413
REMARK  167  A    between atoms: _416  and  _418
REMARK  168  A    between atoms: _418  and  _419
REMARK  169  A    between atoms: _418  and  _421
REMARK  170  A    between atoms: _421  and  _422
REMARK  171  A    between atoms: _424  and  _426
REMARK  172  A    between atoms: _426  and  _427
REMARK  173  A    between atoms: _426  and  _429
REMARK  174  A    between atoms: _429  and  _430
REMARK  175  A    between atoms: _430  and  _431
REMARK  176  A    between atoms: _436  and  _438
REMARK  177  A    between atoms: _438  and  _439
REMARK  178  A    between atoms: _438  and  _441
REMARK  179  A    between atoms: _441  and  _442
REMARK  180  A    between atoms: _445  and  _447
REMARK  181  A    between atoms: _447  and  _448
REMARK  182  A    between atoms: _447  and  _450
REMARK  183  A    between atoms: _450  and  _451
REMARK  184  A    between atoms: _453  and  _455
REMARK  185  A    between atoms: _455  and  _456
REMARK  186  A    between atoms: _458  and  _460
REMARK  187  A    between atoms: _460  and  _461
REMARK  188  A    between atoms: _460  and  _463
REMARK  189  A    between atoms: _463  and  _464
REMARK  190  A    between atoms: _466  and  _468
REMARK  191  A    between atoms: _468  and  _469
REMARK  192  A    between atoms: _472  and  _474
REMARK  193  A    between atoms: _474  and  _475
REMARK  194  A    between atoms: _474  and  _477
REMARK  195  A    between atoms: _477  and  _478
REMARK  196  A    between atoms: _481  and  _483
REMARK  197  A    between atoms: _483  and  _484
REMARK  198  A    between atoms: _483  and  _486
REMARK  199  A    between atoms: _489  and  _491
REMARK  200  A    between atoms: _491  and  _492
REMARK  201  A    between atoms: _491  and  _494
REMARK  202  A    between atoms: _494  and  _495
REMARK  203  A    between atoms: _495  and  _496
REMARK  204  A    between atoms: _496  and  _497
REMARK  205  A    between atoms: _497  and  _498
REMARK  206  A    between atoms: _502  and  _504
REMARK  207  A    between atoms: _504  and  _505
REMARK  208  A    between atoms: _504  and  _507
REMARK  209  A    between atoms: _511  and  _512
REMARK  210  A    between atoms: _517  and  _519
REMARK  211  A    between atoms: _519  and  _520
REMARK  212  A    between atoms: _519  and  _522
REMARK  213  A    between atoms: _522  and  _523
REMARK  214  A    between atoms: _523  and  _524
REMARK  215  A    between atoms: _529  and  _531
REMARK  216  A    between atoms: _531  and  _532
REMARK  217  A    between atoms: _531  and  _534
REMARK  218  A    between atoms: _534  and  _535
REMARK  219  A    between atoms: _538  and  _540
REMARK  220  A    between atoms: _540  and  _541
REMARK  221  A    between atoms: _540  and  _543
REMARK  222  A    between atoms: _543  and  _544
REMARK                            x       y       z     vdW  Elec       q    Type
REMARK                         _______ _______ _______ _____ _____    ______ ____
ROOT
ATOM      1  O   HOH     1      45.936  32.237   8.368  0.00  0.00    +0.000 OA
ENDROOT
TORSDOF 0
REMARK  Name = ../refined-set-2016/2clh/2clh_pocket.pdb
REMARK  222 active torsions:
REMARK  status: ('A' for Active; 'I' for Inactive)
REMARK    1  A    between atoms: _1  and  _3
REMARK    2  A    between atoms: _3  and  _4
REMARK    3  A    between atoms: _3  and  _6
REMARK    4  A    between atoms: _10  and  _11
REMARK    5  A    between atoms: _16  and  _18
REMARK    6  A    between atoms: _18  and  _19
REMARK    7  A    between atoms: _18  and  _21
REMARK    8  A    between atoms: _21  and  _22
REMARK    9  A    between atoms: _28  and  _30
REMARK   10  A    between atoms: _30  and  _31
REMARK   11  A    between atoms: _30  and  _33
REMARK   12  A    between atoms: _36  and  _38
REMARK   13  A    between atoms: _38  and  _39
REMARK   14  A    between atoms: _38  and  _41
REMARK   15  A    between atoms: _41  and  _42
REMARK   16  A    between atoms: _45  and  _47
REMARK   17  A    between atoms: _47  and  _48
REMARK   18  A    between atoms: _47  and  _50
REMARK   19  A    between atoms: _50  and  _51
REMARK   20  A    between atoms: _54  and  _56
REMARK   21  A    between atoms: _56  and  _57
REMARK   22  A    between atoms: _56  and  _59
REMARK   23  A    between atoms: _59  and  _60
REMARK   24  A    between atoms: _60  and  _61
REMARK   25  A    between atoms: _64  and  _66
REMARK   26  A    between atoms: _66  and  _67
REMARK   27  A    between atoms: _66  and  _69
REMARK   28  A    between atoms: _69  and  _70
REMARK   29  A    between atoms: _73  and  _75
REMARK   30  A    between atoms: _75  and  _76
REMARK   31  A    between atoms: _79  and  _80
REMARK   32  A    between atoms: _85  and  _87
REMARK   33  A    between atoms: _87  and  _88
REMARK   34  A    between atoms: _87  and  _90
REMARK   35  A    between atoms: _90  and  _91
REMARK   36  A    between atoms: _94  and  _96
REMARK   37  A    between atoms: _96  and  _97
REMARK   38  A    between atoms: _100  and  _102
REMARK   39  A    between atoms: _102  and  _103
REMARK   40  A    between atoms: _102  and  _105
REMARK   41  A    between atoms: _105  and  _106
REMARK   42  A    between atoms: _109  and  _111
REMARK   43  A    between atoms: _111  and  _112
REMARK   44  A    between atoms: _114  and  _116
REMARK   45  A    between atoms: _116  and  _117
REMARK   46  A    between atoms: _116  and  _119
REMARK   47  A    between atoms: _119  and  _120
REMARK   48  A    between atoms: _123  and  _125
REMARK   49  A    between atoms: _125  and  _126
REMARK   50  A    between atoms: _125  and  _128
REMARK   51  A    between atoms: _128  and  _129
REMARK   52  A    between atoms: _132  and  _134
REMARK   53  A    between atoms: _134  and  _135
REMARK   54  A    between atoms: _134  and  _137
REMARK   55  A    between atoms: _137  and  _138
REMARK   56  A    between atoms: _143  and  _145
REMARK   57  A    between atoms: _145  and  _146
REMARK   58  A    between atoms: _148  and  _150
REMARK   59  A    between atoms: _150  and  _151
REMARK   60  A    between atoms: _150  and  _153
REMARK   61  A    between atoms: _153  and  _154
REMARK   62  A    between atoms: _157  and  _159
REMARK   63  A    between atoms: _159  and  _160
REMARK   64  A    between atoms: _159  and  _162
REMARK   65  A    between atoms: _162  and  _163
REMARK   66  A    between atoms: _166  and  _168
REMARK   67  A    between atoms: _168  and  _169
REMARK   68  A    between atoms: _168  and  _171
REMARK   69  A    between atoms: _171  and  _172
REMARK   70  A    between atoms: _172  and  _173
REMARK   71  A    between atoms: _175  and  _177
REMARK   72  A    between atoms: _177  and  _178
REMARK   73  A    between atoms: _177  and  _180
REMARK   74  A    between atoms: _180  and  _181
REMARK   75  A    between atoms: _186  and  _187
REMARK   76  A    between atoms: _189  and  _191
REMARK   77  A    between atoms: _191  and  _192
REMARK   78  A    between atoms: _191  and  _194
REMARK   79  A    between atoms: _194  and  _195
REMARK   80  A    between atoms: _198  and  _200
REMARK   81  A    between atoms: _200  and  _201
REMARK   82  A    between atoms: _200  and  _203
REMARK   83  A    between atoms: _206  and  _208
REMARK   84  A    between atoms: _208  and  _209
REMARK   85  A    between atoms: _212  and  _214
REMARK   86  A    between atoms: _214  and  _215
REMARK   87  A    between atoms: _214  and  _217
REMARK   88  A    between atoms: _217  and  _218
REMARK   89  A    between atoms: _221  and  _223
REMARK   90  A    between atoms: _223  and  _224
REMARK   91  A    between atoms: _223  and  _226
REMARK   92  A    between atoms: _229  and  _231
REMARK   93  A    between atoms: _231  and  _232
REMARK   94  A    between atoms: _231  and  _234
REMARK   95  A    between atoms: _234  and  _235
REMARK   96  A    between atoms: _238  and  _240
REMARK   97  A    between atoms: _240  and  _241
REMARK   98  A    between atoms: _240  and  _243
REMARK   99  A    between atoms: _243  and  _244
REMARK  100  A    between atoms: _250  and  _252
REMARK  101  A    between atoms: _252  and  _253
REMARK  102  A    between atoms: _252  and  _255
REMARK  103  A    between atoms: _255  and  _256
REMARK  104  A    between atoms: _259  and  _261
REMARK  105  A    between atoms: _261  and  _262
REMARK  106  A    between atoms: _261  and  _264
REMARK  107  A    between atoms: _266  and  _268
REMARK  108  A    between atoms: _268  and  _269
REMARK  109  A    between atoms: _268  and  _271
REMARK  110  A    between atoms: _271  and  _272
REMARK  111  A    between atoms: _277  and  _278
REMARK  112  A    between atoms: _280  and  _282
REMARK  113  A    between atoms: _282  and  _283
REMARK  114  A    between atoms: _282  and  _285
REMARK  115  A    between atoms: _285  and  _286
REMARK  116  A    between atoms: _291  and  _292
REMARK  117  A    between atoms: _294  and  _296
REMARK  118  A    between atoms: _296  and  _297
REMARK  119  A    between atoms: _296  and  _299
REMARK  120  A    between atoms: _299  and  _300
REMARK  121  A    between atoms: _303  and  _305
REMARK  122  A    between atoms: _305  and  _306
REMARK  123  A    between atoms: _305  and  _308
REMARK  124  A    between atoms: _308  and  _309
REMARK  125  A    between atoms: _312  and  _314
REMARK  126  A    between atoms: _314  and  _315
REMARK  127  A    between atoms: _314  and  _317
REMARK  128  A    between atoms: _317  and  _318
REMARK  129  A    between atoms: _320  and  _322
REMARK  130  A    between atoms: _322  and  _323
REMARK  131  A    between atoms: _322  and  _325
REMARK  132  A    between atoms: _325  and  _326
REMARK  133  A    between atoms: _326  and  _327
REMARK  134  A    between atoms: _327  and  _328
REMARK  135  A    between atoms: _337  and  _339
REMARK  136  A    between atoms: _339  and  _340
REMARK  137  A    between atoms: _342  and  _344
REMARK  138  A    between atoms: _344  and  _345
REMARK  139  A    between atoms: _344  and  _347
REMARK  140  A    between atoms: _350  and  _352
REMARK  141  A    between atoms: _352  and  _353
REMARK  142  A    between atoms: _352  and  _355
REMARK  143  A    between atoms: _355  and  _356
REMARK  144  A    between atoms: _359  and  _361
REMARK  145  A    between atoms: _361  and  _362
REMARK  146  A    between atoms: _364  and  _366
REMARK  147  A    between atoms: _366  and  _367
REMARK  148  A    between atoms: _366  and  _369
REMARK  149  A    between atoms: _369  and  _370
REMARK  150  A    between atoms: _373  and  _375
REMARK  151  A    between atoms: _375  and  _376
REMARK  152  A    between atoms: _375  and  _378
REMARK  153  A    between atoms: _378  and  _379
REMARK  154  A    between atoms: _379  and  _380
REMARK  155  A    between atoms: _385  and  _387
REMARK  156  A    between atoms: _387  and  _388
REMARK  157  A    between atoms: _390  and  _392
REMARK  158  A    between atoms: _392  and  _393
REMARK  159  A    between atoms: _392  and  _395
REMARK  160  A    between atoms: _395  and  _396
REMARK  161  A    between atoms: _402  and  _404
REMARK  162  A    between atoms: _404  and  _405
REMARK  163  A    between atoms: _407  and  _409
REMARK  164  A    between atoms: _409  and  _410
REMARK  165  A    between atoms: _409  and  _412
REMARK  166  A    between atoms: _412  and  _413
REMARK  167  A    between atoms: _416  and  _418
REMARK  168  A    between atoms: _418  and  _419
REMARK  169  A    between atoms: _418  and  _421
REMARK  170  A    between atoms: _421  and  _422
REMARK  171  A    between atoms: _424  and  _426
REMARK  172  A    between atoms: _426  and  _427
REMARK  173  A    between atoms: _426  and  _429
REMARK  174  A    between atoms: _429  and  _430
REMARK  175  A    between atoms: _430  and  _431
REMARK  176  A    between atoms: _436  and  _438
REMARK  177  A    between atoms: _438  and  _439
REMARK  178  A    between atoms: _438  and  _441
REMARK  179  A    between atoms: _441  and  _442
REMARK  180  A    between atoms: _445  and  _447
REMARK  181  A    between atoms: _447  and  _448
REMARK  182  A    between atoms: _447  and  _450
REMARK  183  A    between atoms: _450  and  _451
REMARK  184  A    between atoms: _453  and  _455
REMARK  185  A    between atoms: _455  and  _456
REMARK  186  A    between atoms: _458  and  _460
REMARK  187  A    between atoms: _460  and  _461
REMARK  188  A    between atoms: _460  and  _463
REMARK  189  A    between atoms: _463  and  _464
REMARK  190  A    between atoms: _466  and  _468
REMARK  191  A    between atoms: _468  and  _469
REMARK  192  A    between atoms: _472  and  _474
REMARK  193  A    between atoms: _474  and  _475
REMARK  194  A    between atoms: _474  and  _477
REMARK  195  A    between atoms: _477  and  _478
REMARK  196  A    between atoms: _481  and  _483
REMARK  197  A    between atoms: _483  and  _484
REMARK  198  A    between atoms: _483  and  _486
REMARK  199  A    between atoms: _489  and  _491
REMARK  200  A    between atoms: _491  and  _492
REMARK  201  A    between atoms: _491  and  _494
REMARK  202  A    between atoms: _494  and  _495
REMARK  203  A    between atoms: _495  and  _496
REMARK  204  A    between atoms: _496  and  _497
REMARK  205  A    between atoms: _497  and  _498
REMARK  206  A    between atoms: _502  and  _504
REMARK  207  A    between atoms: _504  and  _505
REMARK  208  A    between atoms: _504  and  _507
REMARK  209  A    between atoms: _511  and  _512
REMARK  210  A    between atoms: _517  and  _519
REMARK  211  A    between atoms: _519  and  _520
REMARK  212  A    between atoms: _519  and  _522
REMARK  213  A    between atoms: _522  and  _523
REMARK  214  A    between atoms: _523  and  _524
REMARK  215  A    between atoms: _529  and  _531
REMARK  216  A    between atoms: _531  and  _532
REMARK  217  A    between atoms: _531  and  _534
REMARK  218  A    between atoms: _534  and  _535
REMARK  219  A    between atoms: _538  and  _540
REMARK  220  A    between atoms: _540  and  _541
REMARK  221  A    between atoms: _540  and  _543
REMARK  222  A    between atoms: _543  and  _544
REMARK                            x       y       z     vdW  Elec       q    Type
REMARK                         _______ _______ _______ _____ _____    ______ ____
ROOT
ATOM      1  O   HOH     1      51.222  19.769  11.218  0.00  0.00    +0.000 OA
ENDROOT
TORSDOF 0
REMARK  Name = ../refined-set-2016/2clh/2clh_pocket.pdb
REMARK  222 active torsions:
REMARK  status: ('A' for Active; 'I' for Inactive)
REMARK    1  A    between atoms: _1  and  _3
REMARK    2  A    between atoms: _3  and  _4
REMARK    3  A    between atoms: _3  and  _6
REMARK    4  A    between atoms: _10  and  _11
REMARK    5  A    between atoms: _16  and  _18
REMARK    6  A    between atoms: _18  and  _19
REMARK    7  A    between atoms: _18  and  _21
REMARK    8  A    between atoms: _21  and  _22
REMARK    9  A    between atoms: _28  and  _30
REMARK   10  A    between atoms: _30  and  _31
REMARK   11  A    between atoms: _30  and  _33
REMARK   12  A    between atoms: _36  and  _38
REMARK   13  A    between atoms: _38  and  _39
REMARK   14  A    between atoms: _38  and  _41
REMARK   15  A    between atoms: _41  and  _42
REMARK   16  A    between atoms: _45  and  _47
REMARK   17  A    between atoms: _47  and  _48
REMARK   18  A    between atoms: _47  and  _50
REMARK   19  A    between atoms: _50  and  _51
REMARK   20  A    between atoms: _54  and  _56
REMARK   21  A    between atoms: _56  and  _57
REMARK   22  A    between atoms: _56  and  _59
REMARK   23  A    between atoms: _59  and  _60
REMARK   24  A    between atoms: _60  and  _61
REMARK   25  A    between atoms: _64  and  _66
REMARK   26  A    between atoms: _66  and  _67
REMARK   27  A    between atoms: _66  and  _69
REMARK   28  A    between atoms: _69  and  _70
REMARK   29  A    between atoms: _73  and  _75
REMARK   30  A    between atoms: _75  and  _76
REMARK   31  A    between atoms: _79  and  _80
REMARK   32  A    between atoms: _85  and  _87
REMARK   33  A    between atoms: _87  and  _88
REMARK   34  A    between atoms: _87  and  _90
REMARK   35  A    between atoms: _90  and  _91
REMARK   36  A    between atoms: _94  and  _96
REMARK   37  A    between atoms: _96  and  _97
REMARK   38  A    between atoms: _100  and  _102
REMARK   39  A    between atoms: _102  and  _103
REMARK   40  A    between atoms: _102  and  _105
REMARK   41  A    between atoms: _105  and  _106
REMARK   42  A    between atoms: _109  and  _111
REMARK   43  A    between atoms: _111  and  _112
REMARK   44  A    between atoms: _114  and  _116
REMARK   45  A    between atoms: _116  and  _117
REMARK   46  A    between atoms: _116  and  _119
REMARK   47  A    between atoms: _119  and  _120
REMARK   48  A    between atoms: _123  and  _125
REMARK   49  A    between atoms: _125  and  _126
REMARK   50  A    between atoms: _125  and  _128
REMARK   51  A    between atoms: _128  and  _129
REMARK   52  A    between atoms: _132  and  _134
REMARK   53  A    between atoms: _134  and  _135
REMARK   54  A    between atoms: _134  and  _137
REMARK   55  A    between atoms: _137  and  _138
REMARK   56  A    between atoms: _143  and  _145
REMARK   57  A    between atoms: _145  and  _146
REMARK   58  A    between atoms: _148  and  _150
REMARK   59  A    between atoms: _150  and  _151
REMARK   60  A    between atoms: _150  and  _153
REMARK   61  A    between atoms: _153  and  _154
REMARK   62  A    between atoms: _157  and  _159
REMARK   63  A    between atoms: _159  and  _160
REMARK   64  A    between atoms: _159  and  _162
REMARK   65  A    between atoms: _162  and  _163
REMARK   66  A    between atoms: _166  and  _168
REMARK   67  A    between atoms: _168  and  _169
REMARK   68  A    between atoms: _168  and  _171
REMARK   69  A    between atoms: _171  and  _172
REMARK   70  A    between atoms: _172  and  _173
REMARK   71  A    between atoms: _175  and  _177
REMARK   72  A    between atoms: _177  and  _178
REMARK   73  A    between atoms: _177  and  _180
REMARK   74  A    between atoms: _180  and  _181
REMARK   75  A    between atoms: _186  and  _187
REMARK   76  A    between atoms: _189  and  _191
REMARK   77  A    between atoms: _191  and  _192
REMARK   78  A    between atoms: _191  and  _194
REMARK   79  A    between atoms: _194  and  _195
REMARK   80  A    between atoms: _198  and  _200
REMARK   81  A    between atoms: _200  and  _201
REMARK   82  A    between atoms: _200  and  _203
REMARK   83  A    between atoms: _206  and  _208
REMARK   84  A    between atoms: _208  and  _209
REMARK   85  A    between atoms: _212  and  _214
REMARK   86  A    between atoms: _214  and  _215
REMARK   87  A    between atoms: _214  and  _217
REMARK   88  A    between atoms: _217  and  _218
REMARK   89  A    between atoms: _221  and  _223
REMARK   90  A    between atoms: _223  and  _224
REMARK   91  A    between atoms: _223  and  _226
REMARK   92  A    between atoms: _229  and  _231
REMARK   93  A    between atoms: _231  and  _232
REMARK   94  A    between atoms: _231  and  _234
REMARK   95  A    between atoms: _234  and  _235
REMARK   96  A    between atoms: _238  and  _240
REMARK   97  A    between atoms: _240  and  _241
REMARK   98  A    between atoms: _240  and  _243
REMARK   99  A    between atoms: _243  and  _244
REMARK  100  A    between atoms: _250  and  _252
REMARK  101  A    between atoms: _252  and  _253
REMARK  102  A    between atoms: _252  and  _255
REMARK  103  A    between atoms: _255  and  _256
REMARK  104  A    between atoms: _259  and  _261
REMARK  105  A    between atoms: _261  and  _262
REMARK  106  A    between atoms: _261  and  _264
REMARK  107  A    between atoms: _266  and  _268
REMARK  108  A    between atoms: _268  and  _269
REMARK  109  A    between atoms: _268  and  _271
REMARK  110  A    between atoms: _271  and  _272
REMARK  111  A    between atoms: _277  and  _278
REMARK  112  A    between atoms: _280  and  _282
REMARK  113  A    between atoms: _282  and  _283
REMARK  114  A    between atoms: _282  and  _285
REMARK  115  A    between atoms: _285  and  _286
REMARK  116  A    between atoms: _291  and  _292
REMARK  117  A    between atoms: _294  and  _296
REMARK  118  A    between atoms: _296  and  _297
REMARK  119  A    between atoms: _296  and  _299
REMARK  120  A    between atoms: _299  and  _300
REMARK  121  A    between atoms: _303  and  _305
REMARK  122  A    between atoms: _305  and  _306
REMARK  123  A    between atoms: _305  and  _308
REMARK  124  A    between atoms: _308  and  _309
REMARK  125  A    between atoms: _312  and  _314
REMARK  126  A    between atoms: _314  and  _315
REMARK  127  A    between atoms: _314  and  _317
REMARK  128  A    between atoms: _317  and  _318
REMARK  129  A    between atoms: _320  and  _322
REMARK  130  A    between atoms: _322  and  _323
REMARK  131  A    between atoms: _322  and  _325
REMARK  132  A    between atoms: _325  and  _326
REMARK  133  A    between atoms: _326  and  _327
REMARK  134  A    between atoms: _327  and  _328
REMARK  135  A    between atoms: _337  and  _339
REMARK  136  A    between atoms: _339  and  _340
REMARK  137  A    between atoms: _342  and  _344
REMARK  138  A    between atoms: _344  and  _345
REMARK  139  A    between atoms: _344  and  _347
REMARK  140  A    between atoms: _350  and  _352
REMARK  141  A    between atoms: _352  and  _353
REMARK  142  A    between atoms: _352  and  _355
REMARK  143  A    between atoms: _355  and  _356
REMARK  144  A    between atoms: _359  and  _361
REMARK  145  A    between atoms: _361  and  _362
REMARK  146  A    between atoms: _364  and  _366
REMARK  147  A    between atoms: _366  and  _367
REMARK  148  A    between atoms: _366  and  _369
REMARK  149  A    between atoms: _369  and  _370
REMARK  150  A    between atoms: _373  and  _375
REMARK  151  A    between atoms: _375  and  _376
REMARK  152  A    between atoms: _375  and  _378
REMARK  153  A    between atoms: _378  and  _379
REMARK  154  A    between atoms: _379  and  _380
REMARK  155  A    between atoms: _385  and  _387
REMARK  156  A    between atoms: _387  and  _388
REMARK  157  A    between atoms: _390  and  _392
REMARK  158  A    between atoms: _392  and  _393
REMARK  159  A    between atoms: _392  and  _395
REMARK  160  A    between atoms: _395  and  _396
REMARK  161  A    between atoms: _402  and  _404
REMARK  162  A    between atoms: _404  and  _405
REMARK  163  A    between atoms: _407  and  _409
REMARK  164  A    between atoms: _409  and  _410
REMARK  165  A    between atoms: _409  and  _412
REMARK  166  A    between atoms: _412  and  _413
REMARK  167  A    between atoms: _416  and  _418
REMARK  168  A    between atoms: _418  and  _419
REMARK  169  A    between atoms: _418  and  _421
REMARK  170  A    between atoms: _421  and  _422
REMARK  171  A    between atoms: _424  and  _426
REMARK  172  A    between atoms: _426  and  _427
REMARK  173  A    between atoms: _426  and  _429
REMARK  174  A    between atoms: _429  and  _430
REMARK  175  A    between atoms: _430  and  _431
REMARK  176  A    between atoms: _436  and  _438
REMARK  177  A    between atoms: _438  and  _439
REMARK  178  A    between atoms: _438  and  _441
REMARK  179  A    between atoms: _441  and  _442
REMARK  180  A    between atoms: _445  and  _447
REMARK  181  A    between atoms: _447  and  _448
REMARK  182  A    between atoms: _447  and  _450
REMARK  183  A    between atoms: _450  and  _451
REMARK  184  A    between atoms: _453  and  _455
REMARK  185  A    between atoms: _455  and  _456
REMARK  186  A    between atoms: _458  and  _460
REMARK  187  A    between atoms: _460  and  _461
REMARK  188  A    between atoms: _460  and  _463
REMARK  189  A    between atoms: _463  and  _464
REMARK  190  A    between atoms: _466  and  _468
REMARK  191  A    between atoms: _468  and  _469
REMARK  192  A    between atoms: _472  and  _474
REMARK  193  A    between atoms: _474  and  _475
REMARK  194  A    between atoms: _474  and  _477
REMARK  195  A    between atoms: _477  and  _478
REMARK  196  A    between atoms: _481  and  _483
REMARK  197  A    between atoms: _483  and  _484
REMARK  198  A    between atoms: _483  and  _486
REMARK  199  A    between atoms: _489  and  _491
REMARK  200  A    between atoms: _491  and  _492
REMARK  201  A    between atoms: _491  and  _494
REMARK  202  A    between atoms: _494  and  _495
REMARK  203  A    between atoms: _495  and  _496
REMARK  204  A    between atoms: _496  and  _497
REMARK  205  A    between atoms: _497  and  _498
REMARK  206  A    between atoms: _502  and  _504
REMARK  207  A    between atoms: _504  and  _505
REMARK  208  A    between atoms: _504  and  _507
REMARK  209  A    between atoms: _511  and  _512
REMARK  210  A    between atoms: _517  and  _519
REMARK  211  A    between atoms: _519  and  _520
REMARK  212  A    between atoms: _519  and  _522
REMARK  213  A    between atoms: _522  and  _523
REMARK  214  A    between atoms: _523  and  _524
REMARK  215  A    between atoms: _529  and  _531
REMARK  216  A    between atoms: _531  and  _532
REMARK  217  A    between atoms: _531  and  _534
REMARK  218  A    between atoms: _534  and  _535
REMARK  219  A    between atoms: _538  and  _540
REMARK  220  A    between atoms: _540  and  _541
REMARK  221  A    between atoms: _540  and  _543
REMARK  222  A    between atoms: _543  and  _544
REMARK                            x       y       z     vdW  Elec       q    Type
REMARK                         _______ _______ _______ _____ _____    ______ ____
ROOT
ATOM      1  O   HOH     1      51.290  17.678  15.645  0.00  0.00    +0.000 OA
ENDROOT
TORSDOF 0
REMARK  Name = ../refined-set-2016/2clh/2clh_pocket.pdb
REMARK  222 active torsions:
REMARK  status: ('A' for Active; 'I' for Inactive)
REMARK    1  A    between atoms: _1  and  _3
REMARK    2  A    between atoms: _3  and  _4
REMARK    3  A    between atoms: _3  and  _6
REMARK    4  A    between atoms: _10  and  _11
REMARK    5  A    between atoms: _16  and  _18
REMARK    6  A    between atoms: _18  and  _19
REMARK    7  A    between atoms: _18  and  _21
REMARK    8  A    between atoms: _21  and  _22
REMARK    9  A    between atoms: _28  and  _30
REMARK   10  A    between atoms: _30  and  _31
REMARK   11  A    between atoms: _30  and  _33
REMARK   12  A    between atoms: _36  and  _38
REMARK   13  A    between atoms: _38  and  _39
REMARK   14  A    between atoms: _38  and  _41
REMARK   15  A    between atoms: _41  and  _42
REMARK   16  A    between atoms: _45  and  _47
REMARK   17  A    between atoms: _47  and  _48
REMARK   18  A    between atoms: _47  and  _50
REMARK   19  A    between atoms: _50  and  _51
REMARK   20  A    between atoms: _54  and  _56
REMARK   21  A    between atoms: _56  and  _57
REMARK   22  A    between atoms: _56  and  _59
REMARK   23  A    between atoms: _59  and  _60
REMARK   24  A    between atoms: _60  and  _61
REMARK   25  A    between atoms: _64  and  _66
REMARK   26  A    between atoms: _66  and  _67
REMARK   27  A    between atoms: _66  and  _69
REMARK   28  A    between atoms: _69  and  _70
REMARK   29  A    between atoms: _73  and  _75
REMARK   30  A    between atoms: _75  and  _76
REMARK   31  A    between atoms: _79  and  _80
REMARK   32  A    between atoms: _85  and  _87
REMARK   33  A    between atoms: _87  and  _88
REMARK   34  A    between atoms: _87  and  _90
REMARK   35  A    between atoms: _90  and  _91
REMARK   36  A    between atoms: _94  and  _96
REMARK   37  A    between atoms: _96  and  _97
REMARK   38  A    between atoms: _100  and  _102
REMARK   39  A    between atoms: _102  and  _103
REMARK   40  A    between atoms: _102  and  _105
REMARK   41  A    between atoms: _105  and  _106
REMARK   42  A    between atoms: _109  and  _111
REMARK   43  A    between atoms: _111  and  _112
REMARK   44  A    between atoms: _114  and  _116
REMARK   45  A    between atoms: _116  and  _117
REMARK   46  A    between atoms: _116  and  _119
REMARK   47  A    between atoms: _119  and  _120
REMARK   48  A    between atoms: _123  and  _125
REMARK   49  A    between atoms: _125  and  _126
REMARK   50  A    between atoms: _125  and  _128
REMARK   51  A    between atoms: _128  and  _129
REMARK   52  A    between atoms: _132  and  _134
REMARK   53  A    between atoms: _134  and  _135
REMARK   54  A    between atoms: _134  and  _137
REMARK   55  A    between atoms: _137  and  _138
REMARK   56  A    between atoms: _143  and  _145
REMARK   57  A    between atoms: _145  and  _146
REMARK   58  A    between atoms: _148  and  _150
REMARK   59  A    between atoms: _150  and  _151
REMARK   60  A    between atoms: _150  and  _153
REMARK   61  A    between atoms: _153  and  _154
REMARK   62  A    between atoms: _157  and  _159
REMARK   63  A    between atoms: _159  and  _160
REMARK   64  A    between atoms: _159  and  _162
REMARK   65  A    between atoms: _162  and  _163
REMARK   66  A    between atoms: _166  and  _168
REMARK   67  A    between atoms: _168  and  _169
REMARK   68  A    between atoms: _168  and  _171
REMARK   69  A    between atoms: _171  and  _172
REMARK   70  A    between atoms: _172  and  _173
REMARK   71  A    between atoms: _175  and  _177
REMARK   72  A    between atoms: _177  and  _178
REMARK   73  A    between atoms: _177  and  _180
REMARK   74  A    between atoms: _180  and  _181
REMARK   75  A    between atoms: _186  and  _187
REMARK   76  A    between atoms: _189  and  _191
REMARK   77  A    between atoms: _191  and  _192
REMARK   78  A    between atoms: _191  and  _194
REMARK   79  A    between atoms: _194  and  _195
REMARK   80  A    between atoms: _198  and  _200
REMARK   81  A    between atoms: _200  and  _201
REMARK   82  A    between atoms: _200  and  _203
REMARK   83  A    between atoms: _206  and  _208
REMARK   84  A    between atoms: _208  and  _209
REMARK   85  A    between atoms: _212  and  _214
REMARK   86  A    between atoms: _214  and  _215
REMARK   87  A    between atoms: _214  and  _217
REMARK   88  A    between atoms: _217  and  _218
REMARK   89  A    between atoms: _221  and  _223
REMARK   90  A    between atoms: _223  and  _224
REMARK   91  A    between atoms: _223  and  _226
REMARK   92  A    between atoms: _229  and  _231
REMARK   93  A    between atoms: _231  and  _232
REMARK   94  A    between atoms: _231  and  _234
REMARK   95  A    between atoms: _234  and  _235
REMARK   96  A    between atoms: _238  and  _240
REMARK   97  A    between atoms: _240  and  _241
REMARK   98  A    between atoms: _240  and  _243
REMARK   99  A    between atoms: _243  and  _244
REMARK  100  A    between atoms: _250  and  _252
REMARK  101  A    between atoms: _252  and  _253
REMARK  102  A    between atoms: _252  and  _255
REMARK  103  A    between atoms: _255  and  _256
REMARK  104  A    between atoms: _259  and  _261
REMARK  105  A    between atoms: _261  and  _262
REMARK  106  A    between atoms: _261  and  _264
REMARK  107  A    between atoms: _266  and  _268
REMARK  108  A    between atoms: _268  and  _269
REMARK  109  A    between atoms: _268  and  _271
REMARK  110  A    between atoms: _271  and  _272
REMARK  111  A    between atoms: _277  and  _278
REMARK  112  A    between atoms: _280  and  _282
REMARK  113  A    between atoms: _282  and  _283
REMARK  114  A    between atoms: _282  and  _285
REMARK  115  A    between atoms: _285  and  _286
REMARK  116  A    between atoms: _291  and  _292
REMARK  117  A    between atoms: _294  and  _296
REMARK  118  A    between atoms: _296  and  _297
REMARK  119  A    between atoms: _296  and  _299
REMARK  120  A    between atoms: _299  and  _300
REMARK  121  A    between atoms: _303  and  _305
REMARK  122  A    between atoms: _305  and  _306
REMARK  123  A    between atoms: _305  and  _308
REMARK  124  A    between atoms: _308  and  _309
REMARK  125  A    between atoms: _312  and  _314
REMARK  126  A    between atoms: _314  and  _315
REMARK  127  A    between atoms: _314  and  _317
REMARK  128  A    between atoms: _317  and  _318
REMARK  129  A    between atoms: _320  and  _322
REMARK  130  A    between atoms: _322  and  _323
REMARK  131  A    between atoms: _322  and  _325
REMARK  132  A    between atoms: _325  and  _326
REMARK  133  A    between atoms: _326  and  _327
REMARK  134  A    between atoms: _327  and  _328
REMARK  135  A    between atoms: _337  and  _339
REMARK  136  A    between atoms: _339  and  _340
REMARK  137  A    between atoms: _342  and  _344
REMARK  138  A    between atoms: _344  and  _345
REMARK  139  A    between atoms: _344  and  _347
REMARK  140  A    between atoms: _350  and  _352
REMARK  141  A    between atoms: _352  and  _353
REMARK  142  A    between atoms: _352  and  _355
REMARK  143  A    between atoms: _355  and  _356
REMARK  144  A    between atoms: _359  and  _361
REMARK  145  A    between atoms: _361  and  _362
REMARK  146  A    between atoms: _364  and  _366
REMARK  147  A    between atoms: _366  and  _367
REMARK  148  A    between atoms: _366  and  _369
REMARK  149  A    between atoms: _369  and  _370
REMARK  150  A    between atoms: _373  and  _375
REMARK  151  A    between atoms: _375  and  _376
REMARK  152  A    between atoms: _375  and  _378
REMARK  153  A    between atoms: _378  and  _379
REMARK  154  A    between atoms: _379  and  _380
REMARK  155  A    between atoms: _385  and  _387
REMARK  156  A    between atoms: _387  and  _388
REMARK  157  A    between atoms: _390  and  _392
REMARK  158  A    between atoms: _392  and  _393
REMARK  159  A    between atoms: _392  and  _395
REMARK  160  A    between atoms: _395  and  _396
REMARK  161  A    between atoms: _402  and  _404
REMARK  162  A    between atoms: _404  and  _405
REMARK  163  A    between atoms: _407  and  _409
REMARK  164  A    between atoms: _409  and  _410
REMARK  165  A    between atoms: _409  and  _412
REMARK  166  A    between atoms: _412  and  _413
REMARK  167  A    between atoms: _416  and  _418
REMARK  168  A    between atoms: _418  and  _419
REMARK  169  A    between atoms: _418  and  _421
REMARK  170  A    between atoms: _421  and  _422
REMARK  171  A    between atoms: _424  and  _426
REMARK  172  A    between atoms: _426  and  _427
REMARK  173  A    between atoms: _426  and  _429
REMARK  174  A    between atoms: _429  and  _430
REMARK  175  A    between atoms: _430  and  _431
REMARK  176  A    between atoms: _436  and  _438
REMARK  177  A    between atoms: _438  and  _439
REMARK  178  A    between atoms: _438  and  _441
REMARK  179  A    between atoms: _441  and  _442
REMARK  180  A    between atoms: _445  and  _447
REMARK  181  A    between atoms: _447  and  _448
REMARK  182  A    between atoms: _447  and  _450
REMARK  183  A    between atoms: _450  and  _451
REMARK  184  A    between atoms: _453  and  _455
REMARK  185  A    between atoms: _455  and  _456
REMARK  186  A    between atoms: _458  and  _460
REMARK  187  A    between atoms: _460  and  _461
REMARK  188  A    between atoms: _460  and  _463
REMARK  189  A    between atoms: _463  and  _464
REMARK  190  A    between atoms: _466  and  _468
REMARK  191  A    between atoms: _468  and  _469
REMARK  192  A    between atoms: _472  and  _474
REMARK  193  A    between atoms: _474  and  _475
REMARK  194  A    between atoms: _474  and  _477
REMARK  195  A    between atoms: _477  and  _478
REMARK  196  A    between atoms: _481  and  _483
REMARK  197  A    between atoms: _483  and  _484
REMARK  198  A    between atoms: _483  and  _486
REMARK  199  A    between atoms: _489  and  _491
REMARK  200  A    between atoms: _491  and  _492
REMARK  201  A    between atoms: _491  and  _494
REMARK  202  A    between atoms: _494  and  _495
REMARK  203  A    between atoms: _495  and  _496
REMARK  204  A    between atoms: _496  and  _497
REMARK  205  A    between atoms: _497  and  _498
REMARK  206  A    between atoms: _502  and  _504
REMARK  207  A    between atoms: _504  and  _505
REMARK  208  A    between atoms: _504  and  _507
REMARK  209  A    between atoms: _511  and  _512
REMARK  210  A    between atoms: _517  and  _519
REMARK  211  A    between atoms: _519  and  _520
REMARK  212  A    between atoms: _519  and  _522
REMARK  213  A    between atoms: _522  and  _523
REMARK  214  A    between atoms: _523  and  _524
REMARK  215  A    between atoms: _529  and  _531
REMARK  216  A    between atoms: _531  and  _532
REMARK  217  A    between atoms: _531  and  _534
REMARK  218  A    between atoms: _534  and  _535
REMARK  219  A    between atoms: _538  and  _540
REMARK  220  A    between atoms: _540  and  _541
REMARK  221  A    between atoms: _540  and  _543
REMARK  222  A    between atoms: _543  and  _544
REMARK                            x       y       z     vdW  Elec       q    Type
REMARK                         _______ _______ _______ _____ _____    ______ ____
ROOT
ATOM      1  O   HOH     1      48.076  14.429  17.566  0.00  0.00    +0.000 OA
ENDROOT
TORSDOF 0
REMARK  Name = ../refined-set-2016/2clh/2clh_pocket.pdb
REMARK  222 active torsions:
REMARK  status: ('A' for Active; 'I' for Inactive)
REMARK    1  A    between atoms: _1  and  _3
REMARK    2  A    between atoms: _3  and  _4
REMARK    3  A    between atoms: _3  and  _6
REMARK    4  A    between atoms: _10  and  _11
REMARK    5  A    between atoms: _16  and  _18
REMARK    6  A    between atoms: _18  and  _19
REMARK    7  A    between atoms: _18  and  _21
REMARK    8  A    between atoms: _21  and  _22
REMARK    9  A    between atoms: _28  and  _30
REMARK   10  A    between atoms: _30  and  _31
REMARK   11  A    between atoms: _30  and  _33
REMARK   12  A    between atoms: _36  and  _38
REMARK   13  A    between atoms: _38  and  _39
REMARK   14  A    between atoms: _38  and  _41
REMARK   15  A    between atoms: _41  and  _42
REMARK   16  A    between atoms: _45  and  _47
REMARK   17  A    between atoms: _47  and  _48
REMARK   18  A    between atoms: _47  and  _50
REMARK   19  A    between atoms: _50  and  _51
REMARK   20  A    between atoms: _54  and  _56
REMARK   21  A    between atoms: _56  and  _57
REMARK   22  A    between atoms: _56  and  _59
REMARK   23  A    between atoms: _59  and  _60
REMARK   24  A    between atoms: _60  and  _61
REMARK   25  A    between atoms: _64  and  _66
REMARK   26  A    between atoms: _66  and  _67
REMARK   27  A    between atoms: _66  and  _69
REMARK   28  A    between atoms: _69  and  _70
REMARK   29  A    between atoms: _73  and  _75
REMARK   30  A    between atoms: _75  and  _76
REMARK   31  A    between atoms: _79  and  _80
REMARK   32  A    between atoms: _85  and  _87
REMARK   33  A    between atoms: _87  and  _88
REMARK   34  A    between atoms: _87  and  _90
REMARK   35  A    between atoms: _90  and  _91
REMARK   36  A    between atoms: _94  and  _96
REMARK   37  A    between atoms: _96  and  _97
REMARK   38  A    between atoms: _100  and  _102
REMARK   39  A    between atoms: _102  and  _103
REMARK   40  A    between atoms: _102  and  _105
REMARK   41  A    between atoms: _105  and  _106
REMARK   42  A    between atoms: _109  and  _111
REMARK   43  A    between atoms: _111  and  _112
REMARK   44  A    between atoms: _114  and  _116
REMARK   45  A    between atoms: _116  and  _117
REMARK   46  A    between atoms: _116  and  _119
REMARK   47  A    between atoms: _119  and  _120
REMARK   48  A    between atoms: _123  and  _125
REMARK   49  A    between atoms: _125  and  _126
REMARK   50  A    between atoms: _125  and  _128
REMARK   51  A    between atoms: _128  and  _129
REMARK   52  A    between atoms: _132  and  _134
REMARK   53  A    between atoms: _134  and  _135
REMARK   54  A    between atoms: _134  and  _137
REMARK   55  A    between atoms: _137  and  _138
REMARK   56  A    between atoms: _143  and  _145
REMARK   57  A    between atoms: _145  and  _146
REMARK   58  A    between atoms: _148  and  _150
REMARK   59  A    between atoms: _150  and  _151
REMARK   60  A    between atoms: _150  and  _153
REMARK   61  A    between atoms: _153  and  _154
REMARK   62  A    between atoms: _157  and  _159
REMARK   63  A    between atoms: _159  and  _160
REMARK   64  A    between atoms: _159  and  _162
REMARK   65  A    between atoms: _162  and  _163
REMARK   66  A    between atoms: _166  and  _168
REMARK   67  A    between atoms: _168  and  _169
REMARK   68  A    between atoms: _168  and  _171
REMARK   69  A    between atoms: _171  and  _172
REMARK   70  A    between atoms: _172  and  _173
REMARK   71  A    between atoms: _175  and  _177
REMARK   72  A    between atoms: _177  and  _178
REMARK   73  A    between atoms: _177  and  _180
REMARK   74  A    between atoms: _180  and  _181
REMARK   75  A    between atoms: _186  and  _187
REMARK   76  A    between atoms: _189  and  _191
REMARK   77  A    between atoms: _191  and  _192
REMARK   78  A    between atoms: _191  and  _194
REMARK   79  A    between atoms: _194  and  _195
REMARK   80  A    between atoms: _198  and  _200
REMARK   81  A    between atoms: _200  and  _201
REMARK   82  A    between atoms: _200  and  _203
REMARK   83  A    between atoms: _206  and  _208
REMARK   84  A    between atoms: _208  and  _209
REMARK   85  A    between atoms: _212  and  _214
REMARK   86  A    between atoms: _214  and  _215
REMARK   87  A    between atoms: _214  and  _217
REMARK   88  A    between atoms: _217  and  _218
REMARK   89  A    between atoms: _221  and  _223
REMARK   90  A    between atoms: _223  and  _224
REMARK   91  A    between atoms: _223  and  _226
REMARK   92  A    between atoms: _229  and  _231
REMARK   93  A    between atoms: _231  and  _232
REMARK   94  A    between atoms: _231  and  _234
REMARK   95  A    between atoms: _234  and  _235
REMARK   96  A    between atoms: _238  and  _240
REMARK   97  A    between atoms: _240  and  _241
REMARK   98  A    between atoms: _240  and  _243
REMARK   99  A    between atoms: _243  and  _244
REMARK  100  A    between atoms: _250  and  _252
REMARK  101  A    between atoms: _252  and  _253
REMARK  102  A    between atoms: _252  and  _255
REMARK  103  A    between atoms: _255  and  _256
REMARK  104  A    between atoms: _259  and  _261
REMARK  105  A    between atoms: _261  and  _262
REMARK  106  A    between atoms: _261  and  _264
REMARK  107  A    between atoms: _266  and  _268
REMARK  108  A    between atoms: _268  and  _269
REMARK  109  A    between atoms: _268  and  _271
REMARK  110  A    between atoms: _271  and  _272
REMARK  111  A    between atoms: _277  and  _278
REMARK  112  A    between atoms: _280  and  _282
REMARK  113  A    between atoms: _282  and  _283
REMARK  114  A    between atoms: _282  and  _285
REMARK  115  A    between atoms: _285  and  _286
REMARK  116  A    between atoms: _291  and  _292
REMARK  117  A    between atoms: _294  and  _296
REMARK  118  A    between atoms: _296  and  _297
REMARK  119  A    between atoms: _296  and  _299
REMARK  120  A    between atoms: _299  and  _300
REMARK  121  A    between atoms: _303  and  _305
REMARK  122  A    between atoms: _305  and  _306
REMARK  123  A    between atoms: _305  and  _308
REMARK  124  A    between atoms: _308  and  _309
REMARK  125  A    between atoms: _312  and  _314
REMARK  126  A    between atoms: _314  and  _315
REMARK  127  A    between atoms: _314  and  _317
REMARK  128  A    between atoms: _317  and  _318
REMARK  129  A    between atoms: _320  and  _322
REMARK  130  A    between atoms: _322  and  _323
REMARK  131  A    between atoms: _322  and  _325
REMARK  132  A    between atoms: _325  and  _326
REMARK  133  A    between atoms: _326  and  _327
REMARK  134  A    between atoms: _327  and  _328
REMARK  135  A    between atoms: _337  and  _339
REMARK  136  A    between atoms: _339  and  _340
REMARK  137  A    between atoms: _342  and  _344
REMARK  138  A    between atoms: _344  and  _345
REMARK  139  A    between atoms: _344  and  _347
REMARK  140  A    between atoms: _350  and  _352
REMARK  141  A    between atoms: _352  and  _353
REMARK  142  A    between atoms: _352  and  _355
REMARK  143  A    between atoms: _355  and  _356
REMARK  144  A    between atoms: _359  and  _361
REMARK  145  A    between atoms: _361  and  _362
REMARK  146  A    between atoms: _364  and  _366
REMARK  147  A    between atoms: _366  and  _367
REMARK  148  A    between atoms: _366  and  _369
REMARK  149  A    between atoms: _369  and  _370
REMARK  150  A    between atoms: _373  and  _375
REMARK  151  A    between atoms: _375  and  _376
REMARK  152  A    between atoms: _375  and  _378
REMARK  153  A    between atoms: _378  and  _379
REMARK  154  A    between atoms: _379  and  _380
REMARK  155  A    between atoms: _385  and  _387
REMARK  156  A    between atoms: _387  and  _388
REMARK  157  A    between atoms: _390  and  _392
REMARK  158  A    between atoms: _392  and  _393
REMARK  159  A    between atoms: _392  and  _395
REMARK  160  A    between atoms: _395  and  _396
REMARK  161  A    between atoms: _402  and  _404
REMARK  162  A    between atoms: _404  and  _405
REMARK  163  A    between atoms: _407  and  _409
REMARK  164  A    between atoms: _409  and  _410
REMARK  165  A    between atoms: _409  and  _412
REMARK  166  A    between atoms: _412  and  _413
REMARK  167  A    between atoms: _416  and  _418
REMARK  168  A    between atoms: _418  and  _419
REMARK  169  A    between atoms: _418  and  _421
REMARK  170  A    between atoms: _421  and  _422
REMARK  171  A    between atoms: _424  and  _426
REMARK  172  A    between atoms: _426  and  _427
REMARK  173  A    between atoms: _426  and  _429
REMARK  174  A    between atoms: _429  and  _430
REMARK  175  A    between atoms: _430  and  _431
REMARK  176  A    between atoms: _436  and  _438
REMARK  177  A    between atoms: _438  and  _439
REMARK  178  A    between atoms: _438  and  _441
REMARK  179  A    between atoms: _441  and  _442
REMARK  180  A    between atoms: _445  and  _447
REMARK  181  A    between atoms: _447  and  _448
REMARK  182  A    between atoms: _447  and  _450
REMARK  183  A    between atoms: _450  and  _451
REMARK  184  A    between atoms: _453  and  _455
REMARK  185  A    between atoms: _455  and  _456
REMARK  186  A    between atoms: _458  and  _460
REMARK  187  A    between atoms: _460  and  _461
REMARK  188  A    between atoms: _460  and  _463
REMARK  189  A    between atoms: _463  and  _464
REMARK  190  A    between atoms: _466  and  _468
REMARK  191  A    between atoms: _468  and  _469
REMARK  192  A    between atoms: _472  and  _474
REMARK  193  A    between atoms: _474  and  _475
REMARK  194  A    between atoms: _474  and  _477
REMARK  195  A    between atoms: _477  and  _478
REMARK  196  A    between atoms: _481  and  _483
REMARK  197  A    between atoms: _483  and  _484
REMARK  198  A    between atoms: _483  and  _486
REMARK  199  A    between atoms: _489  and  _491
REMARK  200  A    between atoms: _491  and  _492
REMARK  201  A    between atoms: _491  and  _494
REMARK  202  A    between atoms: _494  and  _495
REMARK  203  A    between atoms: _495  and  _496
REMARK  204  A    between atoms: _496  and  _497
REMARK  205  A    between atoms: _497  and  _498
REMARK  206  A    between atoms: _502  and  _504
REMARK  207  A    between atoms: _504  and  _505
REMARK  208  A    between atoms: _504  and  _507
REMARK  209  A    between atoms: _511  and  _512
REMARK  210  A    between atoms: _517  and  _519
REMARK  211  A    between atoms: _519  and  _520
REMARK  212  A    between atoms: _519  and  _522
REMARK  213  A    between atoms: _522  and  _523
REMARK  214  A    between atoms: _523  and  _524
REMARK  215  A    between atoms: _529  and  _531
REMARK  216  A    between atoms: _531  and  _532
REMARK  217  A    between atoms: _531  and  _534
REMARK  218  A    between atoms: _534  and  _535
REMARK  219  A    between atoms: _538  and  _540
REMARK  220  A    between atoms: _540  and  _541
REMARK  221  A    between atoms: _540  and  _543
REMARK  222  A    between atoms: _543  and  _544
REMARK                            x       y       z     vdW  Elec       q    Type
REMARK                         _______ _______ _______ _____ _____    ______ ____
ROOT
ATOM      1  O   HOH     1      50.851  17.669  12.731  0.00  0.00    +0.000 OA
ENDROOT
TORSDOF 0
