REMARK  Name = ../refined-set-2016/3ehy/3ehy_pocket.pdb
REMARK  160 active torsions:
REMARK  status: ('A' for Active; 'I' for Inactive)
REMARK    1  A    between atoms: _1  and  _3
REMARK    2  A    between atoms: _3  and  _4
REMARK    3  A    between atoms: _3  and  _6
REMARK    4  A    between atoms: _6  and  _7
REMARK    5  A    between atoms: _12  and  _14
REMARK    6  A    between atoms: _14  and  _15
REMARK    7  A    between atoms: _14  and  _17
REMARK    8  A    between atoms: _17  and  _18
REMARK    9  A    between atoms: _24  and  _26
REMARK   10  A    between atoms: _26  and  _27
REMARK   11  A    between atoms: _26  and  _29
REMARK   12  A    between atoms: _29  and  _30
REMARK   13  A    between atoms: _33  and  _35
REMARK   14  A    between atoms: _35  and  _36
REMARK   15  A    between atoms: _38  and  _40
REMARK   16  A    between atoms: _40  and  _41
REMARK   17  A    between atoms: _43  and  _45
REMARK   18  A    between atoms: _45  and  _46
REMARK   19  A    between atoms: _45  and  _48
REMARK   20  A    between atoms: _46  and  _47
REMARK   21  A    between atoms: _46  and  _52
REMARK   22  A    between atoms: _47  and  CA_393
REMARK   23  A    between atoms: _48  and  _49
REMARK   24  A    between atoms: _52  and  _54
REMARK   25  A    between atoms: _54  and  _55
REMARK   26  A    between atoms: _54  and  _57
REMARK   27  A    between atoms: _57  and  _58
REMARK   28  A    between atoms: _61  and  _63
REMARK   29  A    between atoms: _63  and  _64
REMARK   30  A    between atoms: _67  and  _69
REMARK   31  A    between atoms: _69  and  _70
REMARK   32  A    between atoms: _69  and  _72
REMARK   33  A    between atoms: _72  and  _73
REMARK   34  A    between atoms: _78  and  _80
REMARK   35  A    between atoms: _80  and  _81
REMARK   36  A    between atoms: _84  and  _86
REMARK   37  A    between atoms: _86  and  _87
REMARK   38  A    between atoms: _86  and  _89
REMARK   39  A    between atoms: _89  and  _90
REMARK   40  A    between atoms: _95  and  _97
REMARK   41  A    between atoms: _97  and  _98
REMARK   42  A    between atoms: _97  and  _100
REMARK   43  A    between atoms: _100  and  _101
REMARK   44  A    between atoms: _107  and  _109
REMARK   45  A    between atoms: _109  and  _110
REMARK   46  A    between atoms: _109  and  _112
REMARK   47  A    between atoms: _112  and  _113
REMARK   48  A    between atoms: _116  and  _118
REMARK   49  A    between atoms: _118  and  _119
REMARK   50  A    between atoms: _118  and  _121
REMARK   51  A    between atoms: _121  and  _122
REMARK   52  A    between atoms: _122  and  _123
REMARK   53  A    between atoms: _123  and  _125
REMARK   54  A    between atoms: _125  and  CA_393
REMARK   55  A    between atoms: _126  and  _128
REMARK   56  A    between atoms: _128  and  _129
REMARK   57  A    between atoms: _128  and  _131
REMARK   58  A    between atoms: _131  and  _132
REMARK   59  A    between atoms: _142  and  _144
REMARK   60  A    between atoms: _144  and  _145
REMARK   61  A    between atoms: _144  and  _147
REMARK   62  A    between atoms: _147  and  _148
REMARK   63  A    between atoms: _151  and  _153
REMARK   64  A    between atoms: _153  and  _154
REMARK   65  A    between atoms: _153  and  _156
REMARK   66  A    between atoms: _156  and  _157
REMARK   67  A    between atoms: _162  and  _164
REMARK   68  A    between atoms: _164  and  _165
REMARK   69  A    between atoms: _164  and  _167
REMARK   70  A    between atoms: _167  and  _168
REMARK   71  A    between atoms: _171  and  _173
REMARK   72  A    between atoms: _173  and  _174
REMARK   73  A    between atoms: _173  and  _176
REMARK   74  A    between atoms: _176  and  _177
REMARK   75  A    between atoms: _183  and  _185
REMARK   76  A    between atoms: _185  and  _186
REMARK   77  A    between atoms: _185  and  _188
REMARK   78  A    between atoms: _188  and  _189
REMARK   79  A    between atoms: _192  and  _194
REMARK   80  A    between atoms: _194  and  _195
REMARK   81  A    between atoms: _194  and  _197
REMARK   82  A    between atoms: _197  and  _198
REMARK   83  A    between atoms: _201  and  _203
REMARK   84  A    between atoms: _203  and  _204
REMARK   85  A    between atoms: _207  and  _209
REMARK   86  A    between atoms: _209  and  _210
REMARK   87  A    between atoms: _209  and  _212
REMARK   88  A    between atoms: _215  and  _217
REMARK   89  A    between atoms: _217  and  _218
REMARK   90  A    between atoms: _217  and  _220
REMARK   91  A    between atoms: _220  and  _221
REMARK   92  A    between atoms: _225  and  ZN_392
REMARK   93  A    between atoms: _226  and  _228
REMARK   94  A    between atoms: _228  and  _229
REMARK   95  A    between atoms: _228  and  _231
REMARK   96  A    between atoms: _231  and  _232
REMARK   97  A    between atoms: _232  and  _233
REMARK   98  A    between atoms: _236  and  _238
REMARK   99  A    between atoms: _238  and  _239
REMARK  100  A    between atoms: _238  and  _241
REMARK  101  A    between atoms: _241  and  _242
REMARK  102  A    between atoms: _245  and  _247
REMARK  103  A    between atoms: _247  and  _248
REMARK  104  A    between atoms: _247  and  _250
REMARK  105  A    between atoms: _250  and  _251
REMARK  106  A    between atoms: _255  and  ZN_392
REMARK  107  A    between atoms: _256  and  _258
REMARK  108  A    between atoms: _258  and  _259
REMARK  109  A    between atoms: _258  and  _261
REMARK  110  A    between atoms: _261  and  _262
REMARK  111  A    between atoms: _264  and  _266
REMARK  112  A    between atoms: _266  and  _267
REMARK  113  A    between atoms: _269  and  _271
REMARK  114  A    between atoms: _271  and  _272
REMARK  115  A    between atoms: _271  and  _274
REMARK  116  A    between atoms: _274  and  _275
REMARK  117  A    between atoms: _279  and  ZN_392
REMARK  118  A    between atoms: _280  and  _282
REMARK  119  A    between atoms: _282  and  _283
REMARK  120  A    between atoms: _286  and  _288
REMARK  121  A    between atoms: _288  and  _289
REMARK  122  A    between atoms: _288  and  _291
REMARK  123  A    between atoms: _294  and  _296
REMARK  124  A    between atoms: _296  and  _297
REMARK  125  A    between atoms: _296  and  _299
REMARK  126  A    between atoms: _299  and  _300
REMARK  127  A    between atoms: _300  and  _301
REMARK  128  A    between atoms: _303  and  _305
REMARK  129  A    between atoms: _305  and  _306
REMARK  130  A    between atoms: _305  and  _308
REMARK  131  A    between atoms: _308  and  _309
REMARK  132  A    between atoms: _316  and  _317
REMARK  133  A    between atoms: _322  and  _324
REMARK  134  A    between atoms: _324  and  _325
REMARK  135  A    between atoms: _324  and  _327
REMARK  136  A    between atoms: _327  and  _328
REMARK  137  A    between atoms: _331  and  _333
REMARK  138  A    between atoms: _333  and  _334
REMARK  139  A    between atoms: _333  and  _336
REMARK  140  A    between atoms: _336  and  _337
REMARK  141  A    between atoms: _342  and  _343
REMARK  142  A    between atoms: _345  and  _347
REMARK  143  A    between atoms: _347  and  _348
REMARK  144  A    between atoms: _347  and  _350
REMARK  145  A    between atoms: _350  and  _351
REMARK  146  A    between atoms: _351  and  _352
REMARK  147  A    between atoms: _352  and  _353
REMARK  148  A    between atoms: _353  and  _354
REMARK  149  A    between atoms: _358  and  _360
REMARK  150  A    between atoms: _360  and  _361
REMARK  151  A    between atoms: _360  and  _363
REMARK  152  A    between atoms: _363  and  _364
REMARK  153  A    between atoms: _369  and  _370
REMARK  154  A    between atoms: _372  and  _374
REMARK  155  A    between atoms: _374  and  _375
REMARK  156  A    between atoms: _374  and  _377
REMARK  157  A    between atoms: _380  and  _382
REMARK  158  A    between atoms: _382  and  _383
REMARK  159  A    between atoms: _382  and  _385
REMARK  160  A    between atoms: _385  and  _386
REMARK                            x       y       z     vdW  Elec       q    Type
REMARK                         _______ _______ _______ _____ _____    ______ ____
ROOT
ATOM      1  CB  HIS A   1       6.543   1.993  -3.304  0.00  0.00    +0.072 C 
ENDROOT
BRANCH   1   2
ATOM      2  CG  HIS A   1       5.750   3.101  -2.656  0.00  0.00    +0.082 A 
ATOM      3  ND1 HIS A   1       4.591   2.870  -1.943  0.00  0.00    -0.227 NA
ATOM      4  CE1 HIS A   1       4.139   4.017  -1.457  0.00  0.00    +0.199 A 
ATOM      5  NE2 HIS A   1       4.985   4.976  -1.795  0.00  0.00    -0.221 NA
ATOM      6  CD2 HIS A   1       5.996   4.434  -2.552  0.00  0.00    +0.115 A 
ENDBRANCH   1   2
BRANCH   1   7
ATOM      7  CA  HIS A   1       7.786   1.586  -2.490  0.00  0.00    +0.139 C 
BRANCH   7   8
ATOM      8  N   HIS A   1       8.676   2.715  -2.359  0.00  0.00    -0.239 NA
ATOM      9  H   HIS A   1       9.181   3.059  -3.201  0.00  0.00    +0.142 HD
ENDBRANCH   7   8
BRANCH   7  10
ATOM     10  C   HIS A   1       8.581   0.458  -3.146  0.00  0.00    +0.224 C 
ATOM     11  O   HIS A   1       8.227  -0.080  -4.200  0.00  0.00    -0.287 OA
ENDBRANCH   7  10
ENDBRANCH   1   7
TORSDOF 4
REMARK  Name = ../refined-set-2016/3ehy/3ehy_pocket.pdb
REMARK  160 active torsions:
REMARK  status: ('A' for Active; 'I' for Inactive)
REMARK    1  A    between atoms: _1  and  _3
REMARK    2  A    between atoms: _3  and  _4
REMARK    3  A    between atoms: _3  and  _6
REMARK    4  A    between atoms: _6  and  _7
REMARK    5  A    between atoms: _12  and  _14
REMARK    6  A    between atoms: _14  and  _15
REMARK    7  A    between atoms: _14  and  _17
REMARK    8  A    between atoms: _17  and  _18
REMARK    9  A    between atoms: _24  and  _26
REMARK   10  A    between atoms: _26  and  _27
REMARK   11  A    between atoms: _26  and  _29
REMARK   12  A    between atoms: _29  and  _30
REMARK   13  A    between atoms: _33  and  _35
REMARK   14  A    between atoms: _35  and  _36
REMARK   15  A    between atoms: _38  and  _40
REMARK   16  A    between atoms: _40  and  _41
REMARK   17  A    between atoms: _43  and  _45
REMARK   18  A    between atoms: _45  and  _46
REMARK   19  A    between atoms: _45  and  _48
REMARK   20  A    between atoms: _46  and  _47
REMARK   21  A    between atoms: _46  and  _52
REMARK   22  A    between atoms: _47  and  CA_393
REMARK   23  A    between atoms: _48  and  _49
REMARK   24  A    between atoms: _52  and  _54
REMARK   25  A    between atoms: _54  and  _55
REMARK   26  A    between atoms: _54  and  _57
REMARK   27  A    between atoms: _57  and  _58
REMARK   28  A    between atoms: _61  and  _63
REMARK   29  A    between atoms: _63  and  _64
REMARK   30  A    between atoms: _67  and  _69
REMARK   31  A    between atoms: _69  and  _70
REMARK   32  A    between atoms: _69  and  _72
REMARK   33  A    between atoms: _72  and  _73
REMARK   34  A    between atoms: _78  and  _80
REMARK   35  A    between atoms: _80  and  _81
REMARK   36  A    between atoms: _84  and  _86
REMARK   37  A    between atoms: _86  and  _87
REMARK   38  A    between atoms: _86  and  _89
REMARK   39  A    between atoms: _89  and  _90
REMARK   40  A    between atoms: _95  and  _97
REMARK   41  A    between atoms: _97  and  _98
REMARK   42  A    between atoms: _97  and  _100
REMARK   43  A    between atoms: _100  and  _101
REMARK   44  A    between atoms: _107  and  _109
REMARK   45  A    between atoms: _109  and  _110
REMARK   46  A    between atoms: _109  and  _112
REMARK   47  A    between atoms: _112  and  _113
REMARK   48  A    between atoms: _116  and  _118
REMARK   49  A    between atoms: _118  and  _119
REMARK   50  A    between atoms: _118  and  _121
REMARK   51  A    between atoms: _121  and  _122
REMARK   52  A    between atoms: _122  and  _123
REMARK   53  A    between atoms: _123  and  _125
REMARK   54  A    between atoms: _125  and  CA_393
REMARK   55  A    between atoms: _126  and  _128
REMARK   56  A    between atoms: _128  and  _129
REMARK   57  A    between atoms: _128  and  _131
REMARK   58  A    between atoms: _131  and  _132
REMARK   59  A    between atoms: _142  and  _144
REMARK   60  A    between atoms: _144  and  _145
REMARK   61  A    between atoms: _144  and  _147
REMARK   62  A    between atoms: _147  and  _148
REMARK   63  A    between atoms: _151  and  _153
REMARK   64  A    between atoms: _153  and  _154
REMARK   65  A    between atoms: _153  and  _156
REMARK   66  A    between atoms: _156  and  _157
REMARK   67  A    between atoms: _162  and  _164
REMARK   68  A    between atoms: _164  and  _165
REMARK   69  A    between atoms: _164  and  _167
REMARK   70  A    between atoms: _167  and  _168
REMARK   71  A    between atoms: _171  and  _173
REMARK   72  A    between atoms: _173  and  _174
REMARK   73  A    between atoms: _173  and  _176
REMARK   74  A    between atoms: _176  and  _177
REMARK   75  A    between atoms: _183  and  _185
REMARK   76  A    between atoms: _185  and  _186
REMARK   77  A    between atoms: _185  and  _188
REMARK   78  A    between atoms: _188  and  _189
REMARK   79  A    between atoms: _192  and  _194
REMARK   80  A    between atoms: _194  and  _195
REMARK   81  A    between atoms: _194  and  _197
REMARK   82  A    between atoms: _197  and  _198
REMARK   83  A    between atoms: _201  and  _203
REMARK   84  A    between atoms: _203  and  _204
REMARK   85  A    between atoms: _207  and  _209
REMARK   86  A    between atoms: _209  and  _210
REMARK   87  A    between atoms: _209  and  _212
REMARK   88  A    between atoms: _215  and  _217
REMARK   89  A    between atoms: _217  and  _218
REMARK   90  A    between atoms: _217  and  _220
REMARK   91  A    between atoms: _220  and  _221
REMARK   92  A    between atoms: _225  and  ZN_392
REMARK   93  A    between atoms: _226  and  _228
REMARK   94  A    between atoms: _228  and  _229
REMARK   95  A    between atoms: _228  and  _231
REMARK   96  A    between atoms: _231  and  _232
REMARK   97  A    between atoms: _232  and  _233
REMARK   98  A    between atoms: _236  and  _238
REMARK   99  A    between atoms: _238  and  _239
REMARK  100  A    between atoms: _238  and  _241
REMARK  101  A    between atoms: _241  and  _242
REMARK  102  A    between atoms: _245  and  _247
REMARK  103  A    between atoms: _247  and  _248
REMARK  104  A    between atoms: _247  and  _250
REMARK  105  A    between atoms: _250  and  _251
REMARK  106  A    between atoms: _255  and  ZN_392
REMARK  107  A    between atoms: _256  and  _258
REMARK  108  A    between atoms: _258  and  _259
REMARK  109  A    between atoms: _258  and  _261
REMARK  110  A    between atoms: _261  and  _262
REMARK  111  A    between atoms: _264  and  _266
REMARK  112  A    between atoms: _266  and  _267
REMARK  113  A    between atoms: _269  and  _271
REMARK  114  A    between atoms: _271  and  _272
REMARK  115  A    between atoms: _271  and  _274
REMARK  116  A    between atoms: _274  and  _275
REMARK  117  A    between atoms: _279  and  ZN_392
REMARK  118  A    between atoms: _280  and  _282
REMARK  119  A    between atoms: _282  and  _283
REMARK  120  A    between atoms: _286  and  _288
REMARK  121  A    between atoms: _288  and  _289
REMARK  122  A    between atoms: _288  and  _291
REMARK  123  A    between atoms: _294  and  _296
REMARK  124  A    between atoms: _296  and  _297
REMARK  125  A    between atoms: _296  and  _299
REMARK  126  A    between atoms: _299  and  _300
REMARK  127  A    between atoms: _300  and  _301
REMARK  128  A    between atoms: _303  and  _305
REMARK  129  A    between atoms: _305  and  _306
REMARK  130  A    between atoms: _305  and  _308
REMARK  131  A    between atoms: _308  and  _309
REMARK  132  A    between atoms: _316  and  _317
REMARK  133  A    between atoms: _322  and  _324
REMARK  134  A    between atoms: _324  and  _325
REMARK  135  A    between atoms: _324  and  _327
REMARK  136  A    between atoms: _327  and  _328
REMARK  137  A    between atoms: _331  and  _333
REMARK  138  A    between atoms: _333  and  _334
REMARK  139  A    between atoms: _333  and  _336
REMARK  140  A    between atoms: _336  and  _337
REMARK  141  A    between atoms: _342  and  _343
REMARK  142  A    between atoms: _345  and  _347
REMARK  143  A    between atoms: _347  and  _348
REMARK  144  A    between atoms: _347  and  _350
REMARK  145  A    between atoms: _350  and  _351
REMARK  146  A    between atoms: _351  and  _352
REMARK  147  A    between atoms: _352  and  _353
REMARK  148  A    between atoms: _353  and  _354
REMARK  149  A    between atoms: _358  and  _360
REMARK  150  A    between atoms: _360  and  _361
REMARK  151  A    between atoms: _360  and  _363
REMARK  152  A    between atoms: _363  and  _364
REMARK  153  A    between atoms: _369  and  _370
REMARK  154  A    between atoms: _372  and  _374
REMARK  155  A    between atoms: _374  and  _375
REMARK  156  A    between atoms: _374  and  _377
REMARK  157  A    between atoms: _380  and  _382
REMARK  158  A    between atoms: _382  and  _383
REMARK  159  A    between atoms: _382  and  _385
REMARK  160  A    between atoms: _385  and  _386
REMARK                            x       y       z     vdW  Elec       q    Type
REMARK                         _______ _______ _______ _____ _____    ______ ____
ROOT
ATOM      1  C   PHE A   1      10.141  -5.289  -3.858  0.00  0.00    +0.239 C 
ATOM      2  O   PHE A   1      11.213  -5.067  -3.236  0.00  0.00    -0.274 OA
ATOM      3  N   ASP A   2       9.531  -6.463  -3.883  0.00  0.00    -0.298 N 
ATOM      4  H   ASP A   2       8.750  -6.611  -4.554  0.00  0.00    +0.150 HD
ENDROOT
BRANCH   1   5
ATOM      5  CA  PHE A   1       9.424  -4.183  -4.643  0.00  0.00    +0.149 C 
BRANCH   5   6
ATOM      6  N   PHE A   1      10.040  -2.901  -4.376  0.00  0.00    -0.238 NA
ATOM      7  H   PHE A   1      10.744  -2.513  -5.037  0.00  0.00    +0.142 HD
ENDBRANCH   5   6
BRANCH   5   8
ATOM      8  CB  PHE A   1       9.351  -4.493  -6.142  0.00  0.00    +0.053 C 
BRANCH   8   9
ATOM      9  CG  PHE A   1       8.331  -3.652  -6.898  0.00  0.00    -0.020 A 
ATOM     10  CD2 PHE A   1       7.029  -3.531  -6.437  0.00  0.00    -0.004 A 
ATOM     11  CE2 PHE A   1       6.077  -2.769  -7.129  0.00  0.00    -0.000 A 
ATOM     12  CZ  PHE A   1       6.433  -2.109  -8.289  0.00  0.00    -0.000 A 
ATOM     13  CE1 PHE A   1       7.756  -2.245  -8.780  0.00  0.00    -0.000 A 
ATOM     14  CD1 PHE A   1       8.687  -2.996  -8.077  0.00  0.00    -0.004 A 
ENDBRANCH   8   9
ENDBRANCH   5   8
ENDBRANCH   1   5
BRANCH   3  15
ATOM     15  CA  ASP A   2       9.916  -7.546  -3.008  0.00  0.00    +0.148 C 
BRANCH  15  16
ATOM     16  C   ASP A   2      10.227  -8.887  -3.675  0.00  0.00    +0.227 C 
ATOM     17  O   ASP A   2      10.020  -9.936  -3.057  0.00  0.00    -0.286 OA
ENDBRANCH  15  16
BRANCH  15  18
ATOM     18  CB  ASP A   2       8.788  -7.737  -1.997  0.00  0.00    +0.142 C 
BRANCH  18  19
ATOM     19  CG  ASP A   2       7.417  -8.017  -2.667  0.00  0.00    +0.367 C 
ATOM     20  OD2 ASP A   2       6.427  -8.345  -1.955  0.00  0.00    -0.246 OA
ATOM     21  OD1 ASP A   2       7.330  -7.935  -3.914  0.00  0.00    -0.246 OA
ENDBRANCH  18  19
ENDBRANCH  15  18
ENDBRANCH   3  15
TORSDOF 8
REMARK  Name = ../refined-set-2016/3ehy/3ehy_pocket.pdb
REMARK  160 active torsions:
REMARK  status: ('A' for Active; 'I' for Inactive)
REMARK    1  A    between atoms: _1  and  _3
REMARK    2  A    between atoms: _3  and  _4
REMARK    3  A    between atoms: _3  and  _6
REMARK    4  A    between atoms: _6  and  _7
REMARK    5  A    between atoms: _12  and  _14
REMARK    6  A    between atoms: _14  and  _15
REMARK    7  A    between atoms: _14  and  _17
REMARK    8  A    between atoms: _17  and  _18
REMARK    9  A    between atoms: _24  and  _26
REMARK   10  A    between atoms: _26  and  _27
REMARK   11  A    between atoms: _26  and  _29
REMARK   12  A    between atoms: _29  and  _30
REMARK   13  A    between atoms: _33  and  _35
REMARK   14  A    between atoms: _35  and  _36
REMARK   15  A    between atoms: _38  and  _40
REMARK   16  A    between atoms: _40  and  _41
REMARK   17  A    between atoms: _43  and  _45
REMARK   18  A    between atoms: _45  and  _46
REMARK   19  A    between atoms: _45  and  _48
REMARK   20  A    between atoms: _46  and  _47
REMARK   21  A    between atoms: _46  and  _52
REMARK   22  A    between atoms: _47  and  CA_393
REMARK   23  A    between atoms: _48  and  _49
REMARK   24  A    between atoms: _52  and  _54
REMARK   25  A    between atoms: _54  and  _55
REMARK   26  A    between atoms: _54  and  _57
REMARK   27  A    between atoms: _57  and  _58
REMARK   28  A    between atoms: _61  and  _63
REMARK   29  A    between atoms: _63  and  _64
REMARK   30  A    between atoms: _67  and  _69
REMARK   31  A    between atoms: _69  and  _70
REMARK   32  A    between atoms: _69  and  _72
REMARK   33  A    between atoms: _72  and  _73
REMARK   34  A    between atoms: _78  and  _80
REMARK   35  A    between atoms: _80  and  _81
REMARK   36  A    between atoms: _84  and  _86
REMARK   37  A    between atoms: _86  and  _87
REMARK   38  A    between atoms: _86  and  _89
REMARK   39  A    between atoms: _89  and  _90
REMARK   40  A    between atoms: _95  and  _97
REMARK   41  A    between atoms: _97  and  _98
REMARK   42  A    between atoms: _97  and  _100
REMARK   43  A    between atoms: _100  and  _101
REMARK   44  A    between atoms: _107  and  _109
REMARK   45  A    between atoms: _109  and  _110
REMARK   46  A    between atoms: _109  and  _112
REMARK   47  A    between atoms: _112  and  _113
REMARK   48  A    between atoms: _116  and  _118
REMARK   49  A    between atoms: _118  and  _119
REMARK   50  A    between atoms: _118  and  _121
REMARK   51  A    between atoms: _121  and  _122
REMARK   52  A    between atoms: _122  and  _123
REMARK   53  A    between atoms: _123  and  _125
REMARK   54  A    between atoms: _125  and  CA_393
REMARK   55  A    between atoms: _126  and  _128
REMARK   56  A    between atoms: _128  and  _129
REMARK   57  A    between atoms: _128  and  _131
REMARK   58  A    between atoms: _131  and  _132
REMARK   59  A    between atoms: _142  and  _144
REMARK   60  A    between atoms: _144  and  _145
REMARK   61  A    between atoms: _144  and  _147
REMARK   62  A    between atoms: _147  and  _148
REMARK   63  A    between atoms: _151  and  _153
REMARK   64  A    between atoms: _153  and  _154
REMARK   65  A    between atoms: _153  and  _156
REMARK   66  A    between atoms: _156  and  _157
REMARK   67  A    between atoms: _162  and  _164
REMARK   68  A    between atoms: _164  and  _165
REMARK   69  A    between atoms: _164  and  _167
REMARK   70  A    between atoms: _167  and  _168
REMARK   71  A    between atoms: _171  and  _173
REMARK   72  A    between atoms: _173  and  _174
REMARK   73  A    between atoms: _173  and  _176
REMARK   74  A    between atoms: _176  and  _177
REMARK   75  A    between atoms: _183  and  _185
REMARK   76  A    between atoms: _185  and  _186
REMARK   77  A    between atoms: _185  and  _188
REMARK   78  A    between atoms: _188  and  _189
REMARK   79  A    between atoms: _192  and  _194
REMARK   80  A    between atoms: _194  and  _195
REMARK   81  A    between atoms: _194  and  _197
REMARK   82  A    between atoms: _197  and  _198
REMARK   83  A    between atoms: _201  and  _203
REMARK   84  A    between atoms: _203  and  _204
REMARK   85  A    between atoms: _207  and  _209
REMARK   86  A    between atoms: _209  and  _210
REMARK   87  A    between atoms: _209  and  _212
REMARK   88  A    between atoms: _215  and  _217
REMARK   89  A    between atoms: _217  and  _218
REMARK   90  A    between atoms: _217  and  _220
REMARK   91  A    between atoms: _220  and  _221
REMARK   92  A    between atoms: _225  and  ZN_392
REMARK   93  A    between atoms: _226  and  _228
REMARK   94  A    between atoms: _228  and  _229
REMARK   95  A    between atoms: _228  and  _231
REMARK   96  A    between atoms: _231  and  _232
REMARK   97  A    between atoms: _232  and  _233
REMARK   98  A    between atoms: _236  and  _238
REMARK   99  A    between atoms: _238  and  _239
REMARK  100  A    between atoms: _238  and  _241
REMARK  101  A    between atoms: _241  and  _242
REMARK  102  A    between atoms: _245  and  _247
REMARK  103  A    between atoms: _247  and  _248
REMARK  104  A    between atoms: _247  and  _250
REMARK  105  A    between atoms: _250  and  _251
REMARK  106  A    between atoms: _255  and  ZN_392
REMARK  107  A    between atoms: _256  and  _258
REMARK  108  A    between atoms: _258  and  _259
REMARK  109  A    between atoms: _258  and  _261
REMARK  110  A    between atoms: _261  and  _262
REMARK  111  A    between atoms: _264  and  _266
REMARK  112  A    between atoms: _266  and  _267
REMARK  113  A    between atoms: _269  and  _271
REMARK  114  A    between atoms: _271  and  _272
REMARK  115  A    between atoms: _271  and  _274
REMARK  116  A    between atoms: _274  and  _275
REMARK  117  A    between atoms: _279  and  ZN_392
REMARK  118  A    between atoms: _280  and  _282
REMARK  119  A    between atoms: _282  and  _283
REMARK  120  A    between atoms: _286  and  _288
REMARK  121  A    between atoms: _288  and  _289
REMARK  122  A    between atoms: _288  and  _291
REMARK  123  A    between atoms: _294  and  _296
REMARK  124  A    between atoms: _296  and  _297
REMARK  125  A    between atoms: _296  and  _299
REMARK  126  A    between atoms: _299  and  _300
REMARK  127  A    between atoms: _300  and  _301
REMARK  128  A    between atoms: _303  and  _305
REMARK  129  A    between atoms: _305  and  _306
REMARK  130  A    between atoms: _305  and  _308
REMARK  131  A    between atoms: _308  and  _309
REMARK  132  A    between atoms: _316  and  _317
REMARK  133  A    between atoms: _322  and  _324
REMARK  134  A    between atoms: _324  and  _325
REMARK  135  A    between atoms: _324  and  _327
REMARK  136  A    between atoms: _327  and  _328
REMARK  137  A    between atoms: _331  and  _333
REMARK  138  A    between atoms: _333  and  _334
REMARK  139  A    between atoms: _333  and  _336
REMARK  140  A    between atoms: _336  and  _337
REMARK  141  A    between atoms: _342  and  _343
REMARK  142  A    between atoms: _345  and  _347
REMARK  143  A    between atoms: _347  and  _348
REMARK  144  A    between atoms: _347  and  _350
REMARK  145  A    between atoms: _350  and  _351
REMARK  146  A    between atoms: _351  and  _352
REMARK  147  A    between atoms: _352  and  _353
REMARK  148  A    between atoms: _353  and  _354
REMARK  149  A    between atoms: _358  and  _360
REMARK  150  A    between atoms: _360  and  _361
REMARK  151  A    between atoms: _360  and  _363
REMARK  152  A    between atoms: _363  and  _364
REMARK  153  A    between atoms: _369  and  _370
REMARK  154  A    between atoms: _372  and  _374
REMARK  155  A    between atoms: _374  and  _375
REMARK  156  A    between atoms: _374  and  _377
REMARK  157  A    between atoms: _380  and  _382
REMARK  158  A    between atoms: _382  and  _383
REMARK  159  A    between atoms: _382  and  _385
REMARK  160  A    between atoms: _385  and  _386
REMARK                            x       y       z     vdW  Elec       q    Type
REMARK                         _______ _______ _______ _____ _____    ______ ____
ROOT
ATOM      1  N   UNK A   1       2.709  -6.926  -6.390  0.00  0.00    +0.000 NA
ATOM      2  H   UNK A   1       1.787  -6.689  -5.972  0.00  0.00    +0.000 HD
ENDROOT
BRANCH   1   3
ATOM      3  C   UNK A   1       2.816  -7.052  -7.855  0.00  0.00    +0.000 C 
BRANCH   3   4
ATOM      4  C   UNK A   1       3.131  -5.764  -8.580  0.00  0.00    +0.000 C 
ATOM      5  N   ALA A   2       2.620  -4.641  -8.060  0.00  0.00    +0.000 N 
ATOM      6  H   ALA A   2       2.112  -4.693  -7.154  0.00  0.00    +0.000 HD
ATOM      7  O   UNK A   1       3.817  -5.793  -9.606  0.00  0.00    +0.000 OA
BRANCH   5   8
ATOM      8  CA  ALA A   2       2.751  -3.347  -8.721  0.00  0.00    +0.000 C 
ATOM      9  CB  ALA A   2       1.804  -3.347  -9.956  0.00  0.00    +0.000 C 
BRANCH   8  10
ATOM     10  C   ALA A   2       2.360  -2.257  -7.718  0.00  0.00    +0.000 C 
ATOM     11  O   ALA A   2       1.889  -2.595  -6.655  0.00  0.00    +0.000 OA
ATOM     12  N   HIS A   3       2.597  -0.980  -7.990  0.00  0.00    +0.000 N 
ATOM     13  H   HIS A   3       3.229  -0.716  -8.773  0.00  0.00    +0.000 HD
BRANCH  12  14
ATOM     14  CA  HIS A   3       1.952   0.060  -7.168  0.00  0.00    +0.000 C 
BRANCH  14  15
ATOM     15  C   HIS A   3       1.819   1.315  -8.025  0.00  0.00    +0.000 C 
ATOM     16  N   ALA A   4       0.986   2.267  -7.587  0.00  0.00    +0.000 N 
ATOM     17  H   ALA A   4       0.487   2.141  -6.683  0.00  0.00    +0.000 HD
ATOM     18  O   HIS A   3       2.474   1.416  -9.065  0.00  0.00    +0.000 OA
BRANCH  16  19
ATOM     19  CA  ALA A   4       0.773   3.479  -8.369  0.00  0.00    +0.000 C 
ATOM     20  CB  ALA A   4      -0.380   3.295  -9.382  0.00  0.00    +0.000 C 
BRANCH  19  21
ATOM     21  C   ALA A   4       0.505   4.664  -7.462  0.00  0.00    +0.000 C 
ATOM     22  O   ALA A   4       0.002   4.525  -6.339  0.00  0.00    +0.000 OA
ENDBRANCH  19  21
ENDBRANCH  16  19
ENDBRANCH  14  15
BRANCH  14  23
ATOM     23  CB  HIS A   3       2.768   0.393  -5.907  0.00  0.00    +0.000 C 
BRANCH  23  24
ATOM     24  CG  HIS A   3       4.001   1.203  -6.208  0.00  0.00    +0.000 A 
ATOM     25  ND1 HIS A   3       4.077   2.576  -6.027  0.00  0.00    +0.000 NA
ATOM     26  CE1 HIS A   3       5.261   3.007  -6.427  0.00  0.00    +0.000 A 
ATOM     27  NE2 HIS A   3       5.983   1.953  -6.780  0.00  0.00    +0.000 NA
ATOM     28  CD2 HIS A   3       5.208   0.822  -6.675  0.00  0.00    +0.000 A 
ENDBRANCH  23  24
ENDBRANCH  14  23
ENDBRANCH  12  14
ENDBRANCH   8  10
ENDBRANCH   5   8
ENDBRANCH   3   4
BRANCH   3  29
ATOM     29  C   UNK A   1       1.500  -7.590  -8.451  0.00  0.00    +0.000 C 
BRANCH  29  30
ATOM     30  C   UNK A   1       0.963  -8.752  -7.633  0.00  0.00    +0.000 C 
ATOM     31  C   UNK A   1       1.915  -9.950  -7.737  0.00  0.00    +0.000 C 
ATOM     32  C   UNK A   1      -0.432  -9.177  -8.190  0.00  0.00    +0.000 C 
ENDBRANCH  29  30
ENDBRANCH   3  29
ENDBRANCH   1   3
BRANCH   1  33
ATOM     33  C   UNK A   0       3.750  -7.105  -5.587  0.00  0.00    +0.000 C 
BRANCH  33  34
ATOM     34  O   UNK A   0       4.900  -7.336  -5.992  0.00  0.00    +0.000 OA
BRANCH  34  35
ATOM     35 CA   UNK A   0       6.644  -8.892  -6.019  0.00  0.00    +0.000 Ca
BRANCH  35  36
ATOM     36  O   UNK A   1       5.851 -10.118  -7.733  0.00  0.00    +0.000 OA
BRANCH  36  37
ATOM     37  C   UNK A   1       5.389 -10.566  -8.791  0.00  0.00    +0.000 C 
ATOM     38  O   UNK A   1       5.139 -11.789  -8.938  0.00  0.00    +0.000 OA
BRANCH  37  39
ATOM     39  C   UNK A   1       5.106  -9.606  -9.929  0.00  0.00    +0.000 C 
BRANCH  39  40
ATOM     40  C   UNK A   1       5.349 -10.237 -11.275  0.00  0.00    +0.000 C 
BRANCH  40  41
ATOM     41  C   UNK A   1       6.648 -11.063 -11.420  0.00  0.00    +0.000 C 
BRANCH  41  42
ATOM     42  C   UNK A   1       6.818 -11.505 -12.892  0.00  0.00    +0.000 C 
ATOM     43  O   UNK A   1       7.601 -10.936 -13.633  0.00  0.00    +0.000 OA
ENDBRANCH  41  42
BRANCH  41  44
ATOM     44  N   UNK A   1       7.813 -10.271 -11.103  0.00  0.00    +0.000 NA
ATOM     45  H   UNK A   1       7.779  -9.236 -11.193  0.00  0.00    +0.000 HD
ENDBRANCH  41  44
ENDBRANCH  40  41
ENDBRANCH  39  40
ENDBRANCH  37  39
ENDBRANCH  36  37
ENDBRANCH  35  36
ENDBRANCH  34  35
ENDBRANCH  33  34
BRANCH  33  46
ATOM     46  C   UNK A   0       3.481  -6.933  -4.119  0.00  0.00    +0.000 C 
BRANCH  46  48
ATOM     47  C   UNK A   0       3.285  -9.280  -3.460  0.00  0.00    +0.000 C 
ATOM     48  N   UNK A   0       3.895  -8.105  -3.363  0.00  0.00    +0.000 N 
ATOM     49  H   UNK A   0       4.706  -8.018  -2.717  0.00  0.00    +0.000 HD
ATOM     50  O   UNK A   0       2.330  -9.485  -4.197  0.00  0.00    +0.000 OA
BRANCH  47  51
ATOM     51  C   UNK A   0       3.859 -10.403  -2.612  0.00  0.00    +0.000 C 
BRANCH  51  53
ATOM     52  C   UNK A   0       4.877 -11.489  -4.482  0.00  0.00    +0.000 C 
ATOM     53  N   UNK A   0       4.014 -11.559  -3.469  0.00  0.00    +0.000 N 
ATOM     54  H   UNK A   0       3.464 -12.425  -3.298  0.00  0.00    +0.000 HD
ATOM     55  O   UNK A   0       5.575 -10.489  -4.674  0.00  0.00    +0.000 OA
BRANCH  52  56
ATOM     56  C   UNK A   0       4.991 -12.708  -5.400  0.00  0.00    +0.000 C 
BRANCH  56  57
ATOM     57  N   UNK A   0       6.124 -12.669  -6.365  0.00  0.00    +0.000 NA
ATOM     58  H   UNK A   0       5.929 -12.460  -7.365  0.00  0.00    +0.000 HD
ENDBRANCH  56  57
ENDBRANCH  52  56
ENDBRANCH  51  53
ENDBRANCH  47  51
ENDBRANCH  46  48
BRANCH  46  59
ATOM     59  C   UNK A   0       4.284  -5.681  -3.697  0.00  0.00    +0.000 C 
ATOM     60  C   UNK A   0       3.766  -4.461  -4.414  0.00  0.00    +0.000 C 
BRANCH  59  61
ATOM     61  C   UNK A   0       4.198  -5.483  -2.199  0.00  0.00    +0.000 C 
ATOM     62  C   UNK A   0       2.857  -5.129  -1.698  0.00  0.00    +0.000 C 
ENDBRANCH  59  61
ENDBRANCH  46  59
ENDBRANCH  33  46
ENDBRANCH   1  33
TORSDOF 30
REMARK  Name = ../refined-set-2016/3ehy/3ehy_pocket.pdb
REMARK  160 active torsions:
REMARK  status: ('A' for Active; 'I' for Inactive)
REMARK    1  A    between atoms: _1  and  _3
REMARK    2  A    between atoms: _3  and  _4
REMARK    3  A    between atoms: _3  and  _6
REMARK    4  A    between atoms: _6  and  _7
REMARK    5  A    between atoms: _12  and  _14
REMARK    6  A    between atoms: _14  and  _15
REMARK    7  A    between atoms: _14  and  _17
REMARK    8  A    between atoms: _17  and  _18
REMARK    9  A    between atoms: _24  and  _26
REMARK   10  A    between atoms: _26  and  _27
REMARK   11  A    between atoms: _26  and  _29
REMARK   12  A    between atoms: _29  and  _30
REMARK   13  A    between atoms: _33  and  _35
REMARK   14  A    between atoms: _35  and  _36
REMARK   15  A    between atoms: _38  and  _40
REMARK   16  A    between atoms: _40  and  _41
REMARK   17  A    between atoms: _43  and  _45
REMARK   18  A    between atoms: _45  and  _46
REMARK   19  A    between atoms: _45  and  _48
REMARK   20  A    between atoms: _46  and  _47
REMARK   21  A    between atoms: _46  and  _52
REMARK   22  A    between atoms: _47  and  CA_393
REMARK   23  A    between atoms: _48  and  _49
REMARK   24  A    between atoms: _52  and  _54
REMARK   25  A    between atoms: _54  and  _55
REMARK   26  A    between atoms: _54  and  _57
REMARK   27  A    between atoms: _57  and  _58
REMARK   28  A    between atoms: _61  and  _63
REMARK   29  A    between atoms: _63  and  _64
REMARK   30  A    between atoms: _67  and  _69
REMARK   31  A    between atoms: _69  and  _70
REMARK   32  A    between atoms: _69  and  _72
REMARK   33  A    between atoms: _72  and  _73
REMARK   34  A    between atoms: _78  and  _80
REMARK   35  A    between atoms: _80  and  _81
REMARK   36  A    between atoms: _84  and  _86
REMARK   37  A    between atoms: _86  and  _87
REMARK   38  A    between atoms: _86  and  _89
REMARK   39  A    between atoms: _89  and  _90
REMARK   40  A    between atoms: _95  and  _97
REMARK   41  A    between atoms: _97  and  _98
REMARK   42  A    between atoms: _97  and  _100
REMARK   43  A    between atoms: _100  and  _101
REMARK   44  A    between atoms: _107  and  _109
REMARK   45  A    between atoms: _109  and  _110
REMARK   46  A    between atoms: _109  and  _112
REMARK   47  A    between atoms: _112  and  _113
REMARK   48  A    between atoms: _116  and  _118
REMARK   49  A    between atoms: _118  and  _119
REMARK   50  A    between atoms: _118  and  _121
REMARK   51  A    between atoms: _121  and  _122
REMARK   52  A    between atoms: _122  and  _123
REMARK   53  A    between atoms: _123  and  _125
REMARK   54  A    between atoms: _125  and  CA_393
REMARK   55  A    between atoms: _126  and  _128
REMARK   56  A    between atoms: _128  and  _129
REMARK   57  A    between atoms: _128  and  _131
REMARK   58  A    between atoms: _131  and  _132
REMARK   59  A    between atoms: _142  and  _144
REMARK   60  A    between atoms: _144  and  _145
REMARK   61  A    between atoms: _144  and  _147
REMARK   62  A    between atoms: _147  and  _148
REMARK   63  A    between atoms: _151  and  _153
REMARK   64  A    between atoms: _153  and  _154
REMARK   65  A    between atoms: _153  and  _156
REMARK   66  A    between atoms: _156  and  _157
REMARK   67  A    between atoms: _162  and  _164
REMARK   68  A    between atoms: _164  and  _165
REMARK   69  A    between atoms: _164  and  _167
REMARK   70  A    between atoms: _167  and  _168
REMARK   71  A    between atoms: _171  and  _173
REMARK   72  A    between atoms: _173  and  _174
REMARK   73  A    between atoms: _173  and  _176
REMARK   74  A    between atoms: _176  and  _177
REMARK   75  A    between atoms: _183  and  _185
REMARK   76  A    between atoms: _185  and  _186
REMARK   77  A    between atoms: _185  and  _188
REMARK   78  A    between atoms: _188  and  _189
REMARK   79  A    between atoms: _192  and  _194
REMARK   80  A    between atoms: _194  and  _195
REMARK   81  A    between atoms: _194  and  _197
REMARK   82  A    between atoms: _197  and  _198
REMARK   83  A    between atoms: _201  and  _203
REMARK   84  A    between atoms: _203  and  _204
REMARK   85  A    between atoms: _207  and  _209
REMARK   86  A    between atoms: _209  and  _210
REMARK   87  A    between atoms: _209  and  _212
REMARK   88  A    between atoms: _215  and  _217
REMARK   89  A    between atoms: _217  and  _218
REMARK   90  A    between atoms: _217  and  _220
REMARK   91  A    between atoms: _220  and  _221
REMARK   92  A    between atoms: _225  and  ZN_392
REMARK   93  A    between atoms: _226  and  _228
REMARK   94  A    between atoms: _228  and  _229
REMARK   95  A    between atoms: _228  and  _231
REMARK   96  A    between atoms: _231  and  _232
REMARK   97  A    between atoms: _232  and  _233
REMARK   98  A    between atoms: _236  and  _238
REMARK   99  A    between atoms: _238  and  _239
REMARK  100  A    between atoms: _238  and  _241
REMARK  101  A    between atoms: _241  and  _242
REMARK  102  A    between atoms: _245  and  _247
REMARK  103  A    between atoms: _247  and  _248
REMARK  104  A    between atoms: _247  and  _250
REMARK  105  A    between atoms: _250  and  _251
REMARK  106  A    between atoms: _255  and  ZN_392
REMARK  107  A    between atoms: _256  and  _258
REMARK  108  A    between atoms: _258  and  _259
REMARK  109  A    between atoms: _258  and  _261
REMARK  110  A    between atoms: _261  and  _262
REMARK  111  A    between atoms: _264  and  _266
REMARK  112  A    between atoms: _266  and  _267
REMARK  113  A    between atoms: _269  and  _271
REMARK  114  A    between atoms: _271  and  _272
REMARK  115  A    between atoms: _271  and  _274
REMARK  116  A    between atoms: _274  and  _275
REMARK  117  A    between atoms: _279  and  ZN_392
REMARK  118  A    between atoms: _280  and  _282
REMARK  119  A    between atoms: _282  and  _283
REMARK  120  A    between atoms: _286  and  _288
REMARK  121  A    between atoms: _288  and  _289
REMARK  122  A    between atoms: _288  and  _291
REMARK  123  A    between atoms: _294  and  _296
REMARK  124  A    between atoms: _296  and  _297
REMARK  125  A    between atoms: _296  and  _299
REMARK  126  A    between atoms: _299  and  _300
REMARK  127  A    between atoms: _300  and  _301
REMARK  128  A    between atoms: _303  and  _305
REMARK  129  A    between atoms: _305  and  _306
REMARK  130  A    between atoms: _305  and  _308
REMARK  131  A    between atoms: _308  and  _309
REMARK  132  A    between atoms: _316  and  _317
REMARK  133  A    between atoms: _322  and  _324
REMARK  134  A    between atoms: _324  and  _325
REMARK  135  A    between atoms: _324  and  _327
REMARK  136  A    between atoms: _327  and  _328
REMARK  137  A    between atoms: _331  and  _333
REMARK  138  A    between atoms: _333  and  _334
REMARK  139  A    between atoms: _333  and  _336
REMARK  140  A    between atoms: _336  and  _337
REMARK  141  A    between atoms: _342  and  _343
REMARK  142  A    between atoms: _345  and  _347
REMARK  143  A    between atoms: _347  and  _348
REMARK  144  A    between atoms: _347  and  _350
REMARK  145  A    between atoms: _350  and  _351
REMARK  146  A    between atoms: _351  and  _352
REMARK  147  A    between atoms: _352  and  _353
REMARK  148  A    between atoms: _353  and  _354
REMARK  149  A    between atoms: _358  and  _360
REMARK  150  A    between atoms: _360  and  _361
REMARK  151  A    between atoms: _360  and  _363
REMARK  152  A    between atoms: _363  and  _364
REMARK  153  A    between atoms: _369  and  _370
REMARK  154  A    between atoms: _372  and  _374
REMARK  155  A    between atoms: _374  and  _375
REMARK  156  A    between atoms: _374  and  _377
REMARK  157  A    between atoms: _380  and  _382
REMARK  158  A    between atoms: _382  and  _383
REMARK  159  A    between atoms: _382  and  _385
REMARK  160  A    between atoms: _385  and  _386
REMARK                            x       y       z     vdW  Elec       q    Type
REMARK                         _______ _______ _______ _____ _____    ______ ____
ROOT
ATOM      1  CA  PHE A   2       5.087  -2.970 -12.184  0.00  0.00    +0.153 C 
ENDROOT
BRANCH   1   4
ATOM      2  C   HIS A   1       4.737  -0.706 -11.333  0.00  0.00    +0.239 C 
ATOM      3  O   HIS A   1       3.950  -1.092 -10.437  0.00  0.00    -0.274 OA
ATOM      4  N   PHE A   2       5.338  -1.537 -12.196  0.00  0.00    -0.297 N 
ATOM      5  H   PHE A   2       6.003  -1.146 -12.894  0.00  0.00    +0.150 HD
BRANCH   2   6
ATOM      6  CA  HIS A   1       5.090   0.764 -11.474  0.00  0.00    +0.151 C 
BRANCH   6   7
ATOM      7  N   HIS A   1       3.906   1.633 -11.400  0.00  0.00    -0.238 NA
ATOM      8  H   HIS A   1       3.405   1.725 -10.494  0.00  0.00    +0.142 HD
ENDBRANCH   6   7
BRANCH   6   9
ATOM      9  CB  HIS A   1       6.129   1.136 -10.403  0.00  0.00    +0.074 C 
BRANCH   9  10
ATOM     10  CG  HIS A   1       6.556   2.563 -10.462  0.00  0.00    +0.082 A 
ATOM     11  ND1 HIS A   1       7.276   3.168  -9.446  0.00  0.00    -0.227 NA
ATOM     12  CE1 HIS A   1       7.515   4.423  -9.778  0.00  0.00    +0.199 A 
ATOM     13  NE2 HIS A   1       6.970   4.658 -10.963  0.00  0.00    -0.221 NA
ATOM     14  CD2 HIS A   1       6.358   3.514 -11.407  0.00  0.00    +0.115 A 
ENDBRANCH   9  10
ENDBRANCH   6   9
ENDBRANCH   2   6
ENDBRANCH   1   4
BRANCH   1  15
ATOM     15  C   PHE A   2       6.345  -3.761 -11.831  0.00  0.00    +0.241 C 
ATOM     16  N   ASP A   3       6.191  -4.699 -10.901  0.00  0.00    -0.298 N 
ATOM     17  H   ASP A   3       5.246  -4.878 -10.506  0.00  0.00    +0.150 HD
ATOM     18  O   PHE A   2       7.426  -3.503 -12.372  0.00  0.00    -0.273 OA
BRANCH  16  19
ATOM     19  CA  ASP A   3       7.321  -5.476 -10.429  0.00  0.00    +0.148 C 
BRANCH  19  20
ATOM     20  C   ASP A   3       7.878  -6.419 -11.506  0.00  0.00    +0.227 C 
ATOM     21  O   ASP A   3       7.238  -7.381 -11.877  0.00  0.00    -0.286 OA
ENDBRANCH  19  20
BRANCH  19  22
ATOM     22  CB  ASP A   3       6.927  -6.253  -9.151  0.00  0.00    +0.142 C 
BRANCH  22  23
ATOM     23  CG  ASP A   3       8.131  -6.892  -8.467  0.00  0.00    +0.367 C 
ATOM     24  OD2 ASP A   3       7.933  -7.467  -7.399  0.00  0.00    -0.246 OA
ATOM     25  OD1 ASP A   3       9.250  -6.838  -9.011  0.00  0.00    -0.246 OA
ENDBRANCH  22  23
ENDBRANCH  19  22
ENDBRANCH  16  19
ENDBRANCH   1  15
BRANCH   1  26
ATOM     26  CB  PHE A   2       4.527  -3.403 -13.548  0.00  0.00    +0.055 C 
BRANCH  26  27
ATOM     27  CG  PHE A   2       3.199  -2.773 -13.852  0.00  0.00    -0.020 A 
ATOM     28  CD2 PHE A   2       2.014  -3.471 -13.610  0.00  0.00    -0.004 A 
ATOM     29  CE2 PHE A   2       0.764  -2.891 -13.857  0.00  0.00    -0.000 A 
ATOM     30  CZ  PHE A   2       0.706  -1.543 -14.285  0.00  0.00    -0.000 A 
ATOM     31  CE1 PHE A   2       1.893  -0.816 -14.508  0.00  0.00    -0.000 A 
ATOM     32  CD1 PHE A   2       3.139  -1.432 -14.266  0.00  0.00    -0.004 A 
ENDBRANCH  26  27
ENDBRANCH   1  26
TORSDOF 12
REMARK  Name = ../refined-set-2016/3ehy/3ehy_pocket.pdb
REMARK  160 active torsions:
REMARK  status: ('A' for Active; 'I' for Inactive)
REMARK    1  A    between atoms: _1  and  _3
REMARK    2  A    between atoms: _3  and  _4
REMARK    3  A    between atoms: _3  and  _6
REMARK    4  A    between atoms: _6  and  _7
REMARK    5  A    between atoms: _12  and  _14
REMARK    6  A    between atoms: _14  and  _15
REMARK    7  A    between atoms: _14  and  _17
REMARK    8  A    between atoms: _17  and  _18
REMARK    9  A    between atoms: _24  and  _26
REMARK   10  A    between atoms: _26  and  _27
REMARK   11  A    between atoms: _26  and  _29
REMARK   12  A    between atoms: _29  and  _30
REMARK   13  A    between atoms: _33  and  _35
REMARK   14  A    between atoms: _35  and  _36
REMARK   15  A    between atoms: _38  and  _40
REMARK   16  A    between atoms: _40  and  _41
REMARK   17  A    between atoms: _43  and  _45
REMARK   18  A    between atoms: _45  and  _46
REMARK   19  A    between atoms: _45  and  _48
REMARK   20  A    between atoms: _46  and  _47
REMARK   21  A    between atoms: _46  and  _52
REMARK   22  A    between atoms: _47  and  CA_393
REMARK   23  A    between atoms: _48  and  _49
REMARK   24  A    between atoms: _52  and  _54
REMARK   25  A    between atoms: _54  and  _55
REMARK   26  A    between atoms: _54  and  _57
REMARK   27  A    between atoms: _57  and  _58
REMARK   28  A    between atoms: _61  and  _63
REMARK   29  A    between atoms: _63  and  _64
REMARK   30  A    between atoms: _67  and  _69
REMARK   31  A    between atoms: _69  and  _70
REMARK   32  A    between atoms: _69  and  _72
REMARK   33  A    between atoms: _72  and  _73
REMARK   34  A    between atoms: _78  and  _80
REMARK   35  A    between atoms: _80  and  _81
REMARK   36  A    between atoms: _84  and  _86
REMARK   37  A    between atoms: _86  and  _87
REMARK   38  A    between atoms: _86  and  _89
REMARK   39  A    between atoms: _89  and  _90
REMARK   40  A    between atoms: _95  and  _97
REMARK   41  A    between atoms: _97  and  _98
REMARK   42  A    between atoms: _97  and  _100
REMARK   43  A    between atoms: _100  and  _101
REMARK   44  A    between atoms: _107  and  _109
REMARK   45  A    between atoms: _109  and  _110
REMARK   46  A    between atoms: _109  and  _112
REMARK   47  A    between atoms: _112  and  _113
REMARK   48  A    between atoms: _116  and  _118
REMARK   49  A    between atoms: _118  and  _119
REMARK   50  A    between atoms: _118  and  _121
REMARK   51  A    between atoms: _121  and  _122
REMARK   52  A    between atoms: _122  and  _123
REMARK   53  A    between atoms: _123  and  _125
REMARK   54  A    between atoms: _125  and  CA_393
REMARK   55  A    between atoms: _126  and  _128
REMARK   56  A    between atoms: _128  and  _129
REMARK   57  A    between atoms: _128  and  _131
REMARK   58  A    between atoms: _131  and  _132
REMARK   59  A    between atoms: _142  and  _144
REMARK   60  A    between atoms: _144  and  _145
REMARK   61  A    between atoms: _144  and  _147
REMARK   62  A    between atoms: _147  and  _148
REMARK   63  A    between atoms: _151  and  _153
REMARK   64  A    between atoms: _153  and  _154
REMARK   65  A    between atoms: _153  and  _156
REMARK   66  A    between atoms: _156  and  _157
REMARK   67  A    between atoms: _162  and  _164
REMARK   68  A    between atoms: _164  and  _165
REMARK   69  A    between atoms: _164  and  _167
REMARK   70  A    between atoms: _167  and  _168
REMARK   71  A    between atoms: _171  and  _173
REMARK   72  A    between atoms: _173  and  _174
REMARK   73  A    between atoms: _173  and  _176
REMARK   74  A    between atoms: _176  and  _177
REMARK   75  A    between atoms: _183  and  _185
REMARK   76  A    between atoms: _185  and  _186
REMARK   77  A    between atoms: _185  and  _188
REMARK   78  A    between atoms: _188  and  _189
REMARK   79  A    between atoms: _192  and  _194
REMARK   80  A    between atoms: _194  and  _195
REMARK   81  A    between atoms: _194  and  _197
REMARK   82  A    between atoms: _197  and  _198
REMARK   83  A    between atoms: _201  and  _203
REMARK   84  A    between atoms: _203  and  _204
REMARK   85  A    between atoms: _207  and  _209
REMARK   86  A    between atoms: _209  and  _210
REMARK   87  A    between atoms: _209  and  _212
REMARK   88  A    between atoms: _215  and  _217
REMARK   89  A    between atoms: _217  and  _218
REMARK   90  A    between atoms: _217  and  _220
REMARK   91  A    between atoms: _220  and  _221
REMARK   92  A    between atoms: _225  and  ZN_392
REMARK   93  A    between atoms: _226  and  _228
REMARK   94  A    between atoms: _228  and  _229
REMARK   95  A    between atoms: _228  and  _231
REMARK   96  A    between atoms: _231  and  _232
REMARK   97  A    between atoms: _232  and  _233
REMARK   98  A    between atoms: _236  and  _238
REMARK   99  A    between atoms: _238  and  _239
REMARK  100  A    between atoms: _238  and  _241
REMARK  101  A    between atoms: _241  and  _242
REMARK  102  A    between atoms: _245  and  _247
REMARK  103  A    between atoms: _247  and  _248
REMARK  104  A    between atoms: _247  and  _250
REMARK  105  A    between atoms: _250  and  _251
REMARK  106  A    between atoms: _255  and  ZN_392
REMARK  107  A    between atoms: _256  and  _258
REMARK  108  A    between atoms: _258  and  _259
REMARK  109  A    between atoms: _258  and  _261
REMARK  110  A    between atoms: _261  and  _262
REMARK  111  A    between atoms: _264  and  _266
REMARK  112  A    between atoms: _266  and  _267
REMARK  113  A    between atoms: _269  and  _271
REMARK  114  A    between atoms: _271  and  _272
REMARK  115  A    between atoms: _271  and  _274
REMARK  116  A    between atoms: _274  and  _275
REMARK  117  A    between atoms: _279  and  ZN_392
REMARK  118  A    between atoms: _280  and  _282
REMARK  119  A    between atoms: _282  and  _283
REMARK  120  A    between atoms: _286  and  _288
REMARK  121  A    between atoms: _288  and  _289
REMARK  122  A    between atoms: _288  and  _291
REMARK  123  A    between atoms: _294  and  _296
REMARK  124  A    between atoms: _296  and  _297
REMARK  125  A    between atoms: _296  and  _299
REMARK  126  A    between atoms: _299  and  _300
REMARK  127  A    between atoms: _300  and  _301
REMARK  128  A    between atoms: _303  and  _305
REMARK  129  A    between atoms: _305  and  _306
REMARK  130  A    between atoms: _305  and  _308
REMARK  131  A    between atoms: _308  and  _309
REMARK  132  A    between atoms: _316  and  _317
REMARK  133  A    between atoms: _322  and  _324
REMARK  134  A    between atoms: _324  and  _325
REMARK  135  A    between atoms: _324  and  _327
REMARK  136  A    between atoms: _327  and  _328
REMARK  137  A    between atoms: _331  and  _333
REMARK  138  A    between atoms: _333  and  _334
REMARK  139  A    between atoms: _333  and  _336
REMARK  140  A    between atoms: _336  and  _337
REMARK  141  A    between atoms: _342  and  _343
REMARK  142  A    between atoms: _345  and  _347
REMARK  143  A    between atoms: _347  and  _348
REMARK  144  A    between atoms: _347  and  _350
REMARK  145  A    between atoms: _350  and  _351
REMARK  146  A    between atoms: _351  and  _352
REMARK  147  A    between atoms: _352  and  _353
REMARK  148  A    between atoms: _353  and  _354
REMARK  149  A    between atoms: _358  and  _360
REMARK  150  A    between atoms: _360  and  _361
REMARK  151  A    between atoms: _360  and  _363
REMARK  152  A    between atoms: _363  and  _364
REMARK  153  A    between atoms: _369  and  _370
REMARK  154  A    between atoms: _372  and  _374
REMARK  155  A    between atoms: _374  and  _375
REMARK  156  A    between atoms: _374  and  _377
REMARK  157  A    between atoms: _380  and  _382
REMARK  158  A    between atoms: _382  and  _383
REMARK  159  A    between atoms: _382  and  _385
REMARK  160  A    between atoms: _385  and  _386
REMARK                            x       y       z     vdW  Elec       q    Type
REMARK                         _______ _______ _______ _____ _____    ______ ____
ROOT
ATOM      1  CG  TRP A   1       4.416  -8.612 -15.887  0.00  0.00    -0.002 A 
ATOM      2  CD2 TRP A   1       3.544  -8.210 -14.845  0.00  0.00    +0.013 A 
ATOM      3  CE2 TRP A   1       4.331  -7.584 -13.848  0.00  0.00    +0.056 A 
ATOM      4  CZ2 TRP A   1       3.775  -7.065 -12.696  0.00  0.00    +0.017 A 
ATOM      5  CH2 TRP A   1       2.415  -7.190 -12.533  0.00  0.00    +0.001 A 
ATOM      6  CZ3 TRP A   1       1.590  -7.787 -13.525  0.00  0.00    +0.000 A 
ATOM      7  NE1 TRP A   1       5.642  -7.615 -14.259  0.00  0.00    -0.352 N 
ATOM      8  HE1 TRP A   1       6.457  -7.236 -13.736  0.00  0.00    +0.166 HD
ATOM      9  CE3 TRP A   1       2.132  -8.288 -14.667  0.00  0.00    +0.001 A 
ATOM     10  CD1 TRP A   1       5.684  -8.248 -15.506  0.00  0.00    +0.068 A 
ENDROOT
BRANCH   1  11
ATOM     11  CB  TRP A   1       4.003  -9.353 -17.155  0.00  0.00    +0.053 C 
BRANCH  11  12
ATOM     12  CA  TRP A   1       3.632 -10.791 -16.793  0.00  0.00    +0.137 C 
BRANCH  12  13
ATOM     13  N   TRP A   1       4.780 -11.407 -16.142  0.00  0.00    -0.239 NA
ATOM     14  H   TRP A   1       5.714 -10.977 -16.296  0.00  0.00    +0.142 HD
ENDBRANCH  12  13
BRANCH  12  15
ATOM     15  C   TRP A   1       3.145 -11.624 -18.000  0.00  0.00    +0.224 C 
ATOM     16  O   TRP A   1       3.939 -12.087 -18.789  0.00  0.00    -0.287 OA
ENDBRANCH  12  15
ENDBRANCH  11  12
ENDBRANCH   1  11
TORSDOF 4
REMARK  Name = ../refined-set-2016/3ehy/3ehy_pocket.pdb
REMARK  160 active torsions:
REMARK  status: ('A' for Active; 'I' for Inactive)
REMARK    1  A    between atoms: _1  and  _3
REMARK    2  A    between atoms: _3  and  _4
REMARK    3  A    between atoms: _3  and  _6
REMARK    4  A    between atoms: _6  and  _7
REMARK    5  A    between atoms: _12  and  _14
REMARK    6  A    between atoms: _14  and  _15
REMARK    7  A    between atoms: _14  and  _17
REMARK    8  A    between atoms: _17  and  _18
REMARK    9  A    between atoms: _24  and  _26
REMARK   10  A    between atoms: _26  and  _27
REMARK   11  A    between atoms: _26  and  _29
REMARK   12  A    between atoms: _29  and  _30
REMARK   13  A    between atoms: _33  and  _35
REMARK   14  A    between atoms: _35  and  _36
REMARK   15  A    between atoms: _38  and  _40
REMARK   16  A    between atoms: _40  and  _41
REMARK   17  A    between atoms: _43  and  _45
REMARK   18  A    between atoms: _45  and  _46
REMARK   19  A    between atoms: _45  and  _48
REMARK   20  A    between atoms: _46  and  _47
REMARK   21  A    between atoms: _46  and  _52
REMARK   22  A    between atoms: _47  and  CA_393
REMARK   23  A    between atoms: _48  and  _49
REMARK   24  A    between atoms: _52  and  _54
REMARK   25  A    between atoms: _54  and  _55
REMARK   26  A    between atoms: _54  and  _57
REMARK   27  A    between atoms: _57  and  _58
REMARK   28  A    between atoms: _61  and  _63
REMARK   29  A    between atoms: _63  and  _64
REMARK   30  A    between atoms: _67  and  _69
REMARK   31  A    between atoms: _69  and  _70
REMARK   32  A    between atoms: _69  and  _72
REMARK   33  A    between atoms: _72  and  _73
REMARK   34  A    between atoms: _78  and  _80
REMARK   35  A    between atoms: _80  and  _81
REMARK   36  A    between atoms: _84  and  _86
REMARK   37  A    between atoms: _86  and  _87
REMARK   38  A    between atoms: _86  and  _89
REMARK   39  A    between atoms: _89  and  _90
REMARK   40  A    between atoms: _95  and  _97
REMARK   41  A    between atoms: _97  and  _98
REMARK   42  A    between atoms: _97  and  _100
REMARK   43  A    between atoms: _100  and  _101
REMARK   44  A    between atoms: _107  and  _109
REMARK   45  A    between atoms: _109  and  _110
REMARK   46  A    between atoms: _109  and  _112
REMARK   47  A    between atoms: _112  and  _113
REMARK   48  A    between atoms: _116  and  _118
REMARK   49  A    between atoms: _118  and  _119
REMARK   50  A    between atoms: _118  and  _121
REMARK   51  A    between atoms: _121  and  _122
REMARK   52  A    between atoms: _122  and  _123
REMARK   53  A    between atoms: _123  and  _125
REMARK   54  A    between atoms: _125  and  CA_393
REMARK   55  A    between atoms: _126  and  _128
REMARK   56  A    between atoms: _128  and  _129
REMARK   57  A    between atoms: _128  and  _131
REMARK   58  A    between atoms: _131  and  _132
REMARK   59  A    between atoms: _142  and  _144
REMARK   60  A    between atoms: _144  and  _145
REMARK   61  A    between atoms: _144  and  _147
REMARK   62  A    between atoms: _147  and  _148
REMARK   63  A    between atoms: _151  and  _153
REMARK   64  A    between atoms: _153  and  _154
REMARK   65  A    between atoms: _153  and  _156
REMARK   66  A    between atoms: _156  and  _157
REMARK   67  A    between atoms: _162  and  _164
REMARK   68  A    between atoms: _164  and  _165
REMARK   69  A    between atoms: _164  and  _167
REMARK   70  A    between atoms: _167  and  _168
REMARK   71  A    between atoms: _171  and  _173
REMARK   72  A    between atoms: _173  and  _174
REMARK   73  A    between atoms: _173  and  _176
REMARK   74  A    between atoms: _176  and  _177
REMARK   75  A    between atoms: _183  and  _185
REMARK   76  A    between atoms: _185  and  _186
REMARK   77  A    between atoms: _185  and  _188
REMARK   78  A    between atoms: _188  and  _189
REMARK   79  A    between atoms: _192  and  _194
REMARK   80  A    between atoms: _194  and  _195
REMARK   81  A    between atoms: _194  and  _197
REMARK   82  A    between atoms: _197  and  _198
REMARK   83  A    between atoms: _201  and  _203
REMARK   84  A    between atoms: _203  and  _204
REMARK   85  A    between atoms: _207  and  _209
REMARK   86  A    between atoms: _209  and  _210
REMARK   87  A    between atoms: _209  and  _212
REMARK   88  A    between atoms: _215  and  _217
REMARK   89  A    between atoms: _217  and  _218
REMARK   90  A    between atoms: _217  and  _220
REMARK   91  A    between atoms: _220  and  _221
REMARK   92  A    between atoms: _225  and  ZN_392
REMARK   93  A    between atoms: _226  and  _228
REMARK   94  A    between atoms: _228  and  _229
REMARK   95  A    between atoms: _228  and  _231
REMARK   96  A    between atoms: _231  and  _232
REMARK   97  A    between atoms: _232  and  _233
REMARK   98  A    between atoms: _236  and  _238
REMARK   99  A    between atoms: _238  and  _239
REMARK  100  A    between atoms: _238  and  _241
REMARK  101  A    between atoms: _241  and  _242
REMARK  102  A    between atoms: _245  and  _247
REMARK  103  A    between atoms: _247  and  _248
REMARK  104  A    between atoms: _247  and  _250
REMARK  105  A    between atoms: _250  and  _251
REMARK  106  A    between atoms: _255  and  ZN_392
REMARK  107  A    between atoms: _256  and  _258
REMARK  108  A    between atoms: _258  and  _259
REMARK  109  A    between atoms: _258  and  _261
REMARK  110  A    between atoms: _261  and  _262
REMARK  111  A    between atoms: _264  and  _266
REMARK  112  A    between atoms: _266  and  _267
REMARK  113  A    between atoms: _269  and  _271
REMARK  114  A    between atoms: _271  and  _272
REMARK  115  A    between atoms: _271  and  _274
REMARK  116  A    between atoms: _274  and  _275
REMARK  117  A    between atoms: _279  and  ZN_392
REMARK  118  A    between atoms: _280  and  _282
REMARK  119  A    between atoms: _282  and  _283
REMARK  120  A    between atoms: _286  and  _288
REMARK  121  A    between atoms: _288  and  _289
REMARK  122  A    between atoms: _288  and  _291
REMARK  123  A    between atoms: _294  and  _296
REMARK  124  A    between atoms: _296  and  _297
REMARK  125  A    between atoms: _296  and  _299
REMARK  126  A    between atoms: _299  and  _300
REMARK  127  A    between atoms: _300  and  _301
REMARK  128  A    between atoms: _303  and  _305
REMARK  129  A    between atoms: _305  and  _306
REMARK  130  A    between atoms: _305  and  _308
REMARK  131  A    between atoms: _308  and  _309
REMARK  132  A    between atoms: _316  and  _317
REMARK  133  A    between atoms: _322  and  _324
REMARK  134  A    between atoms: _324  and  _325
REMARK  135  A    between atoms: _324  and  _327
REMARK  136  A    between atoms: _327  and  _328
REMARK  137  A    between atoms: _331  and  _333
REMARK  138  A    between atoms: _333  and  _334
REMARK  139  A    between atoms: _333  and  _336
REMARK  140  A    between atoms: _336  and  _337
REMARK  141  A    between atoms: _342  and  _343
REMARK  142  A    between atoms: _345  and  _347
REMARK  143  A    between atoms: _347  and  _348
REMARK  144  A    between atoms: _347  and  _350
REMARK  145  A    between atoms: _350  and  _351
REMARK  146  A    between atoms: _351  and  _352
REMARK  147  A    between atoms: _352  and  _353
REMARK  148  A    between atoms: _353  and  _354
REMARK  149  A    between atoms: _358  and  _360
REMARK  150  A    between atoms: _360  and  _361
REMARK  151  A    between atoms: _360  and  _363
REMARK  152  A    between atoms: _363  and  _364
REMARK  153  A    between atoms: _369  and  _370
REMARK  154  A    between atoms: _372  and  _374
REMARK  155  A    between atoms: _374  and  _375
REMARK  156  A    between atoms: _374  and  _377
REMARK  157  A    between atoms: _380  and  _382
REMARK  158  A    between atoms: _382  and  _383
REMARK  159  A    between atoms: _382  and  _385
REMARK  160  A    between atoms: _385  and  _386
REMARK                            x       y       z     vdW  Elec       q    Type
REMARK                         _______ _______ _______ _____ _____    ______ ____
ROOT
ATOM      1  CA  VAL A   8      -6.692  -1.971 -14.419  0.00  0.00    +0.000 C 
ENDROOT
BRANCH   1   2
ATOM      2  C   VAL A   8      -6.674  -1.433 -12.992  0.00  0.00    +0.000 C 
ATOM      3  N   UNK A   9      -6.189  -2.255 -12.070  0.00  0.00    +0.000 N 
ATOM      4  H   UNK A   9      -5.767  -3.157 -12.371  0.00  0.00    +0.000 HD
ATOM      5  O   VAL A   8      -7.091  -0.313 -12.733  0.00  0.00    +0.000 OA
BRANCH   3   6
ATOM      6  C   UNK A   9      -6.230  -1.927 -10.622  0.00  0.00    +0.000 C 
BRANCH   6   7
ATOM      7  C   UNK A   9      -5.281  -0.755 -10.404  0.00  0.00    +0.000 C 
ATOM      8  O   UNK A   9      -5.644   0.231  -9.759  0.00  0.00    +0.000 OA
ATOM      9  N   GLU A  10      -4.080  -0.824 -10.991  0.00  0.00    +0.000 N 
ATOM     10  H   GLU A  10      -3.841  -1.637 -11.593  0.00  0.00    +0.000 HD
BRANCH   9  11
ATOM     11  CA  GLU A  10      -3.104   0.247 -10.784  0.00  0.00    +0.000 C 
BRANCH  11  12
ATOM     12  C   GLU A  10      -3.612   1.562 -11.365  0.00  0.00    +0.000 C 
ATOM     13  O   GLU A  10      -3.518   2.585 -10.714  0.00  0.00    +0.000 OA
ATOM     14  N   ILE A  11      -4.146   1.543 -12.590  0.00  0.00    +0.000 N 
ATOM     15  H   ILE A  11      -4.113   0.672 -13.157  0.00  0.00    +0.000 HD
BRANCH  14  16
ATOM     16  CA  ILE A  11      -4.778   2.746 -13.136  0.00  0.00    +0.000 C 
BRANCH  16  17
ATOM     17  C   ILE A  11      -5.932   3.301 -12.268  0.00  0.00    +0.000 C 
ATOM     18  O   ILE A  11      -6.088   4.527 -12.163  0.00  0.00    +0.000 OA
ENDBRANCH  16  17
BRANCH  16  19
ATOM     19  CB  ILE A  11      -5.210   2.589 -14.607  0.00  0.00    +0.000 C 
ATOM     20  CG2 ILE A  11      -5.852   3.872 -15.088  0.00  0.00    +0.000 C 
BRANCH  19  21
ATOM     21  CG1 ILE A  11      -3.957   2.315 -15.470  0.00  0.00    +0.000 C 
ATOM     22  CD1 ILE A  11      -4.227   1.723 -16.836  0.00  0.00    +0.000 C 
ENDBRANCH  19  21
ENDBRANCH  16  19
ENDBRANCH  14  16
ENDBRANCH  11  12
BRANCH  11  23
ATOM     23  CB  GLU A  10      -1.724  -0.145 -11.349  0.00  0.00    +0.000 C 
BRANCH  23  24
ATOM     24  CG  GLU A  10      -1.060  -1.340 -10.588  0.00  0.00    +0.000 C 
BRANCH  24  25
ATOM     25  CD  GLU A  10      -1.076  -1.110  -9.080  0.00  0.00    +0.000 C 
ATOM     26  OE2 GLU A  10      -1.225  -2.107  -8.351  0.00  0.00    +0.000 OA
ATOM     27  OE1 GLU A  10      -0.967   0.071  -8.614  0.00  0.00    +0.000 OA
ENDBRANCH  24  25
ENDBRANCH  23  24
ENDBRANCH  11  23
ENDBRANCH   9  11
ENDBRANCH   6   7
BRANCH   6  28
ATOM     28  C   UNK A   9      -5.789  -3.133  -9.783  0.00  0.00    +0.000 C 
BRANCH  28  29
ATOM     29  C   UNK A   9      -5.715  -2.861  -8.307  0.00  0.00    +0.000 A 
ATOM     30  N   UNK A   9      -6.647  -3.343  -7.406  0.00  0.00    +0.000 NA
ATOM     31  C   UNK A   9      -6.343  -2.932  -6.182  0.00  0.00    +0.000 A 
ATOM     32  N   UNK A   9      -5.224  -2.222  -6.253  0.00  0.00    +0.000 N 
ATOM     33  C   UNK A   9      -4.815  -2.156  -7.569  0.00  0.00    +0.000 A 
BRANCH  32  34
ATOM     34 ZN   UNK A   2      -4.317  -1.328  -4.742  0.00  0.00    +0.000 Zn
BRANCH  34  35
ATOM     35  N   UNK A   2      -5.516  -1.587  -3.100  0.00  0.00    +0.000 N 
ATOM     36  C   UNK A   2      -5.103  -1.502  -1.851  0.00  0.00    +0.000 A 
ATOM     37  N   UNK A   2      -6.148  -1.222  -1.082  0.00  0.00    +0.000 NA
ATOM     38  C   UNK A   2      -7.269  -1.071  -1.868  0.00  0.00    +0.000 A 
ATOM     39  C   UNK A   2      -6.866  -1.301  -3.147  0.00  0.00    +0.000 A 
BRANCH  38  40
ATOM     40  C   UNK A   2      -8.620  -0.793  -1.301  0.00  0.00    +0.000 C 
BRANCH  40  41
ATOM     41  C   UNK A   2      -9.549  -0.025  -2.259  0.00  0.00    +0.000 C 
BRANCH  41  42
ATOM     42  N   UNK A   2      -9.239   1.378  -2.210  0.00  0.00    +0.000 N 
ATOM     43  H   UNK A   2      -9.026   1.822  -1.294  0.00  0.00    +0.000 HD
ATOM     44  C   UNK A   1      -9.219   2.123  -3.322  0.00  0.00    +0.000 C 
ATOM     45  O   UNK A   1      -9.689   1.723  -4.416  0.00  0.00    +0.000 OA
BRANCH  44  46
ATOM     46  C   UNK A   1      -8.674   3.548  -3.193  0.00  0.00    +0.000 C 
BRANCH  46  47
ATOM     47  N   UNK A   1      -9.316   4.379  -4.223  0.00  0.00    +0.000 NA
ATOM     48  H   UNK A   1     -10.282   4.730  -4.065  0.00  0.00    +0.000 HD
ENDBRANCH  46  47
ENDBRANCH  44  46
ENDBRANCH  41  42
BRANCH  41  49
ATOM     49  C   UNK A   2     -10.986  -0.274  -1.894  0.00  0.00    +0.000 C 
ATOM     50  O   UNK A   2     -11.608   0.532  -1.260  0.00  0.00    +0.000 OA
ENDBRANCH  41  49
ENDBRANCH  40  41
ENDBRANCH  38  40
ENDBRANCH  34  35
BRANCH  34  51
ATOM     51  N   UNK A   2      -4.628   0.631  -5.327  0.00  0.00    +0.000 N 
ATOM     52  C   UNK A   2      -5.437   1.580  -4.879  0.00  0.00    +0.000 A 
ATOM     53  N   UNK A   2      -5.230   2.676  -5.596  0.00  0.00    +0.000 NA
ATOM     54  C   UNK A   2      -4.301   2.403  -6.584  0.00  0.00    +0.000 A 
ATOM     55  C   UNK A   2      -3.919   1.114  -6.408  0.00  0.00    +0.000 A 
BRANCH  54  56
ATOM     56  C   UNK A   2      -3.879   3.435  -7.581  0.00  0.00    +0.000 C 
BRANCH  56  57
ATOM     57  C   UNK A   2      -5.058   4.228  -8.150  0.00  0.00    +0.000 C 
BRANCH  57  58
ATOM     58  C   UNK A   2      -4.526   5.475  -8.808  0.00  0.00    +0.000 C 
ATOM     59  O   UNK A   2      -4.632   6.559  -8.217  0.00  0.00    +0.000 OA
ATOM     60  N   UNK A   2      -4.000   5.348 -10.024  0.00  0.00    +0.000 N 
ATOM     61  H   UNK A   2      -3.902   4.399 -10.439  0.00  0.00    +0.000 HD
BRANCH  60  62
ATOM     62  C   UNK A   2      -3.549   6.533 -10.804  0.00  0.00    +0.000 C 
BRANCH  62  63
ATOM     63  C   UNK A   2      -4.601   7.623 -11.002  0.00  0.00    +0.000 C 
ATOM     64  O   UNK A   2      -4.266   8.792 -11.199  0.00  0.00    +0.000 OA
ENDBRANCH  62  63
BRANCH  62  65
ATOM     65  C   UNK A   2      -3.019   6.156 -12.182  0.00  0.00    +0.000 C 
BRANCH  65  66
ATOM     66  O   UNK A   2      -1.905   5.290 -12.108  0.00  0.00    +0.000 OA
ATOM     67  H   UNK A   2      -1.175   5.735 -11.609  0.00  0.00    +0.000 HD
ENDBRANCH  65  66
ENDBRANCH  62  65
ENDBRANCH  60  62
ENDBRANCH  57  58
BRANCH  57  68
ATOM     68  N   UNK A   2      -5.893   3.379  -9.042  0.00  0.00    +0.000 NA
ATOM     69  H   UNK A   1      -5.617   2.388  -9.194  0.00  0.00    +0.000 HD
ENDBRANCH  57  68
ENDBRANCH  56  57
ENDBRANCH  54  56
ENDBRANCH  34  51
ENDBRANCH  32  34
ENDBRANCH  28  29
ENDBRANCH   6  28
ENDBRANCH   3   6
ENDBRANCH   1   2
BRANCH   1  72
ATOM     70  C   ALA A   7      -4.306  -1.822 -14.603  0.00  0.00    +0.000 C 
ATOM     71  O   ALA A   7      -4.351  -0.668 -14.204  0.00  0.00    +0.000 OA
ATOM     72  N   VAL A   8      -5.399  -2.546 -14.779  0.00  0.00    +0.000 N 
ATOM     73  H   VAL A   8      -5.338  -3.509 -15.167  0.00  0.00    +0.000 HD
BRANCH  70  74
ATOM     74  CA  ALA A   7      -2.974  -2.517 -14.860  0.00  0.00    +0.000 C 
ATOM     75  CB  ALA A   7      -2.604  -2.501 -16.362  0.00  0.00    +0.000 C 
BRANCH  74  78
ATOM     76  C   THR A   6      -3.117  -4.174 -13.056  0.00  0.00    +0.000 C 
ATOM     77  O   THR A   6      -3.207  -3.289 -12.169  0.00  0.00    +0.000 OA
ATOM     78  N   ALA A   7      -3.040  -3.890 -14.353  0.00  0.00    +0.000 N 
ATOM     79  H   ALA A   7      -3.026  -4.675 -15.035  0.00  0.00    +0.000 HD
BRANCH  76  80
ATOM     80  CA  THR A   6      -3.038  -5.672 -12.681  0.00  0.00    +0.000 C 
BRANCH  80  83
ATOM     81  C   LEU A   5      -5.154  -6.224 -13.659  0.00  0.00    +0.000 C 
ATOM     82  O   LEU A   5      -5.738  -5.396 -12.954  0.00  0.00    +0.000 OA
ATOM     83  N   THR A   6      -3.854  -6.462 -13.569  0.00  0.00    +0.000 N 
ATOM     84  H   THR A   6      -3.422  -7.218 -14.138  0.00  0.00    +0.000 HD
BRANCH  81  85
ATOM     85  CA  LEU A   5      -5.873  -7.060 -14.674  0.00  0.00    +0.000 C 
BRANCH  85  87
ATOM     86  C   PHE A   4      -4.880  -6.032 -16.711  0.00  0.00    +0.000 C 
ATOM     87  N   LEU A   5      -5.099  -7.124 -15.941  0.00  0.00    +0.000 N 
ATOM     88  H   LEU A   5      -4.712  -8.040 -16.247  0.00  0.00    +0.000 HD
ATOM     89  O   PHE A   4      -5.319  -4.910 -16.436  0.00  0.00    +0.000 OA
BRANCH  86  90
ATOM     90  CA  PHE A   4      -4.105  -6.212 -18.035  0.00  0.00    +0.000 C 
BRANCH  90  93
ATOM     91  C   LEU A   3      -1.983  -6.528 -16.929  0.00  0.00    +0.000 C 
ATOM     92  O   LEU A   3      -2.180  -5.531 -16.209  0.00  0.00    +0.000 OA
ATOM     93  N   PHE A   4      -2.834  -6.906 -17.867  0.00  0.00    +0.000 N 
ATOM     94  H   PHE A   4      -2.595  -7.704 -18.490  0.00  0.00    +0.000 HD
BRANCH  91  95
ATOM     95  CA  LEU A   3      -0.730  -7.389 -16.783  0.00  0.00    +0.000 C 
BRANCH  95  98
ATOM     96  C   UNK A   2      -1.747  -9.358 -15.731  0.00  0.00    +0.000 C 
ATOM     97  O   UNK A   2      -2.135  -8.716 -14.785  0.00  0.00    +0.000 OA
ATOM     98  N   LEU A   3      -1.071  -8.821 -16.736  0.00  0.00    +0.000 N 
ATOM     99  H   LEU A   3      -0.770  -9.433 -17.521  0.00  0.00    +0.000 HD
BRANCH  96 100
ATOM    100  C   UNK A   2      -1.962 -10.870 -15.764  0.00  0.00    +0.000 C 
BRANCH 100 102
ATOM    101  C   UNK A   1      -0.089 -11.665 -14.449  0.00  0.00    +0.000 C 
ATOM    102  N   UNK A   2      -1.406 -11.453 -14.562  0.00  0.00    +0.000 N 
ATOM    103  H   UNK A   2      -2.037 -11.710 -13.776  0.00  0.00    +0.000 HD
ATOM    104  O   UNK A   1       0.738 -11.273 -15.281  0.00  0.00    +0.000 OA
BRANCH 101 105
ATOM    105  C   UNK A   1       0.366 -12.429 -13.237  0.00  0.00    +0.000 C 
BRANCH 105 106
ATOM    106  C   UNK A   1       1.186 -11.434 -12.412  0.00  0.00    +0.000 C 
ATOM    107  C   UNK A   1       0.274 -10.370 -11.769  0.00  0.00    +0.000 C 
BRANCH 106 108
ATOM    108  O   UNK A   1       1.900 -12.151 -11.411  0.00  0.00    +0.000 OA
ATOM    109  H   UNK A   1       1.258 -12.626 -10.826  0.00  0.00    +0.000 HD
ENDBRANCH 106 108
ENDBRANCH 105 106
BRANCH 105 110
ATOM    110  N   UNK A   1       1.216 -13.532 -13.713  0.00  0.00    +0.000 NA
ATOM    111  H   UNK A   1       2.074 -13.292 -14.249  0.00  0.00    +0.000 HD
ENDBRANCH 105 110
ENDBRANCH 101 105
ENDBRANCH 100 102
BRANCH 100 112
ATOM    112  C   UNK A   2      -3.451 -11.265 -15.886  0.00  0.00    +0.000 C 
BRANCH 112 113
ATOM    113  C   UNK A   2      -4.093 -10.779 -17.163  0.00  0.00    +0.000 C 
ATOM    114  O   UNK A   2      -4.686  -9.684 -17.200  0.00  0.00    +0.000 OA
ATOM    115  N   UNK A   2      -4.063 -11.626 -18.200  0.00  0.00    +0.000 N 
ATOM    116  H   UNK A   2      -3.554 -12.529 -18.119  0.00  0.00    +0.000 HD
ATOM    117  H   UNK A   2      -4.549 -11.381 -19.086  0.00  0.00    +0.000 HD
ENDBRANCH 112 113
ENDBRANCH 100 112
ENDBRANCH  96 100
ENDBRANCH  95  98
BRANCH  95 118
ATOM    118  CB  LEU A   3       0.189  -7.127 -17.972  0.00  0.00    +0.000 C 
BRANCH 118 119
ATOM    119  CG  LEU A   3       0.637  -5.671 -18.146  0.00  0.00    +0.000 C 
ATOM    120  CD2 LEU A   3       1.388  -5.267 -16.819  0.00  0.00    +0.000 C 
ATOM    121  CD1 LEU A   3       1.462  -5.512 -19.424  0.00  0.00    +0.000 C 
ENDBRANCH 118 119
ENDBRANCH  95 118
ENDBRANCH  91  95
ENDBRANCH  90  93
BRANCH  90 122
ATOM    122  CB  PHE A   4      -5.013  -6.876 -19.087  0.00  0.00    +0.000 C 
BRANCH 122 123
ATOM    123  CG  PHE A   4      -6.430  -6.379 -19.029  0.00  0.00    +0.000 A 
ATOM    124  CD2 PHE A   4      -7.423  -7.150 -18.458  0.00  0.00    +0.000 A 
ATOM    125  CE2 PHE A   4      -8.737  -6.674 -18.389  0.00  0.00    +0.000 A 
ATOM    126  CZ  PHE A   4      -9.066  -5.438 -18.881  0.00  0.00    +0.000 A 
ATOM    127  CE1 PHE A   4      -8.117  -4.667 -19.474  0.00  0.00    +0.000 A 
ATOM    128  CD1 PHE A   4      -6.779  -5.103 -19.510  0.00  0.00    +0.000 A 
ENDBRANCH 122 123
ENDBRANCH  90 122
ENDBRANCH  86  90
ENDBRANCH  85  87
BRANCH  85 129
ATOM    129  CB  LEU A   5      -6.064  -8.443 -14.037  0.00  0.00    +0.000 C 
BRANCH 129 130
ATOM    130  CG  LEU A   5      -7.335  -9.122 -14.519  0.00  0.00    +0.000 C 
ATOM    131  CD2 LEU A   5      -7.416 -10.497 -13.899  0.00  0.00    +0.000 C 
ATOM    132  CD1 LEU A   5      -8.483  -8.222 -14.015  0.00  0.00    +0.000 C 
ENDBRANCH 129 130
ENDBRANCH  85 129
ENDBRANCH  81  85
ENDBRANCH  80  83
BRANCH  80 133
ATOM    133  CB  THR A   6      -1.600  -6.229 -12.703  0.00  0.00    +0.000 C 
ATOM    134  CG2 THR A   6      -0.695  -5.542 -11.685  0.00  0.00    +0.000 C 
BRANCH 133 135
ATOM    135  OG1 THR A   6      -1.636  -7.648 -12.492  0.00  0.00    +0.000 OA
ATOM    136  HG1 THR A   6      -2.167  -8.074 -13.211  0.00  0.00    +0.000 HD
ENDBRANCH 133 135
ENDBRANCH  80 133
ENDBRANCH  76  80
ENDBRANCH  74  78
ENDBRANCH  70  74
ENDBRANCH   1  72
BRANCH   1 137
ATOM    137  CB  VAL A   8      -7.862  -2.953 -14.646  0.00  0.00    +0.000 C 
ATOM    138  CG2 VAL A   8      -9.236  -2.322 -14.050  0.00  0.00    +0.000 C 
ATOM    139  CG1 VAL A   8      -8.034  -3.183 -16.145  0.00  0.00    +0.000 C 
ENDBRANCH   1 137
TORSDOF 59
REMARK  Name = ../refined-set-2016/3ehy/3ehy_pocket.pdb
REMARK  160 active torsions:
REMARK  status: ('A' for Active; 'I' for Inactive)
REMARK    1  A    between atoms: _1  and  _3
REMARK    2  A    between atoms: _3  and  _4
REMARK    3  A    between atoms: _3  and  _6
REMARK    4  A    between atoms: _6  and  _7
REMARK    5  A    between atoms: _12  and  _14
REMARK    6  A    between atoms: _14  and  _15
REMARK    7  A    between atoms: _14  and  _17
REMARK    8  A    between atoms: _17  and  _18
REMARK    9  A    between atoms: _24  and  _26
REMARK   10  A    between atoms: _26  and  _27
REMARK   11  A    between atoms: _26  and  _29
REMARK   12  A    between atoms: _29  and  _30
REMARK   13  A    between atoms: _33  and  _35
REMARK   14  A    between atoms: _35  and  _36
REMARK   15  A    between atoms: _38  and  _40
REMARK   16  A    between atoms: _40  and  _41
REMARK   17  A    between atoms: _43  and  _45
REMARK   18  A    between atoms: _45  and  _46
REMARK   19  A    between atoms: _45  and  _48
REMARK   20  A    between atoms: _46  and  _47
REMARK   21  A    between atoms: _46  and  _52
REMARK   22  A    between atoms: _47  and  CA_393
REMARK   23  A    between atoms: _48  and  _49
REMARK   24  A    between atoms: _52  and  _54
REMARK   25  A    between atoms: _54  and  _55
REMARK   26  A    between atoms: _54  and  _57
REMARK   27  A    between atoms: _57  and  _58
REMARK   28  A    between atoms: _61  and  _63
REMARK   29  A    between atoms: _63  and  _64
REMARK   30  A    between atoms: _67  and  _69
REMARK   31  A    between atoms: _69  and  _70
REMARK   32  A    between atoms: _69  and  _72
REMARK   33  A    between atoms: _72  and  _73
REMARK   34  A    between atoms: _78  and  _80
REMARK   35  A    between atoms: _80  and  _81
REMARK   36  A    between atoms: _84  and  _86
REMARK   37  A    between atoms: _86  and  _87
REMARK   38  A    between atoms: _86  and  _89
REMARK   39  A    between atoms: _89  and  _90
REMARK   40  A    between atoms: _95  and  _97
REMARK   41  A    between atoms: _97  and  _98
REMARK   42  A    between atoms: _97  and  _100
REMARK   43  A    between atoms: _100  and  _101
REMARK   44  A    between atoms: _107  and  _109
REMARK   45  A    between atoms: _109  and  _110
REMARK   46  A    between atoms: _109  and  _112
REMARK   47  A    between atoms: _112  and  _113
REMARK   48  A    between atoms: _116  and  _118
REMARK   49  A    between atoms: _118  and  _119
REMARK   50  A    between atoms: _118  and  _121
REMARK   51  A    between atoms: _121  and  _122
REMARK   52  A    between atoms: _122  and  _123
REMARK   53  A    between atoms: _123  and  _125
REMARK   54  A    between atoms: _125  and  CA_393
REMARK   55  A    between atoms: _126  and  _128
REMARK   56  A    between atoms: _128  and  _129
REMARK   57  A    between atoms: _128  and  _131
REMARK   58  A    between atoms: _131  and  _132
REMARK   59  A    between atoms: _142  and  _144
REMARK   60  A    between atoms: _144  and  _145
REMARK   61  A    between atoms: _144  and  _147
REMARK   62  A    between atoms: _147  and  _148
REMARK   63  A    between atoms: _151  and  _153
REMARK   64  A    between atoms: _153  and  _154
REMARK   65  A    between atoms: _153  and  _156
REMARK   66  A    between atoms: _156  and  _157
REMARK   67  A    between atoms: _162  and  _164
REMARK   68  A    between atoms: _164  and  _165
REMARK   69  A    between atoms: _164  and  _167
REMARK   70  A    between atoms: _167  and  _168
REMARK   71  A    between atoms: _171  and  _173
REMARK   72  A    between atoms: _173  and  _174
REMARK   73  A    between atoms: _173  and  _176
REMARK   74  A    between atoms: _176  and  _177
REMARK   75  A    between atoms: _183  and  _185
REMARK   76  A    between atoms: _185  and  _186
REMARK   77  A    between atoms: _185  and  _188
REMARK   78  A    between atoms: _188  and  _189
REMARK   79  A    between atoms: _192  and  _194
REMARK   80  A    between atoms: _194  and  _195
REMARK   81  A    between atoms: _194  and  _197
REMARK   82  A    between atoms: _197  and  _198
REMARK   83  A    between atoms: _201  and  _203
REMARK   84  A    between atoms: _203  and  _204
REMARK   85  A    between atoms: _207  and  _209
REMARK   86  A    between atoms: _209  and  _210
REMARK   87  A    between atoms: _209  and  _212
REMARK   88  A    between atoms: _215  and  _217
REMARK   89  A    between atoms: _217  and  _218
REMARK   90  A    between atoms: _217  and  _220
REMARK   91  A    between atoms: _220  and  _221
REMARK   92  A    between atoms: _225  and  ZN_392
REMARK   93  A    between atoms: _226  and  _228
REMARK   94  A    between atoms: _228  and  _229
REMARK   95  A    between atoms: _228  and  _231
REMARK   96  A    between atoms: _231  and  _232
REMARK   97  A    between atoms: _232  and  _233
REMARK   98  A    between atoms: _236  and  _238
REMARK   99  A    between atoms: _238  and  _239
REMARK  100  A    between atoms: _238  and  _241
REMARK  101  A    between atoms: _241  and  _242
REMARK  102  A    between atoms: _245  and  _247
REMARK  103  A    between atoms: _247  and  _248
REMARK  104  A    between atoms: _247  and  _250
REMARK  105  A    between atoms: _250  and  _251
REMARK  106  A    between atoms: _255  and  ZN_392
REMARK  107  A    between atoms: _256  and  _258
REMARK  108  A    between atoms: _258  and  _259
REMARK  109  A    between atoms: _258  and  _261
REMARK  110  A    between atoms: _261  and  _262
REMARK  111  A    between atoms: _264  and  _266
REMARK  112  A    between atoms: _266  and  _267
REMARK  113  A    between atoms: _269  and  _271
REMARK  114  A    between atoms: _271  and  _272
REMARK  115  A    between atoms: _271  and  _274
REMARK  116  A    between atoms: _274  and  _275
REMARK  117  A    between atoms: _279  and  ZN_392
REMARK  118  A    between atoms: _280  and  _282
REMARK  119  A    between atoms: _282  and  _283
REMARK  120  A    between atoms: _286  and  _288
REMARK  121  A    between atoms: _288  and  _289
REMARK  122  A    between atoms: _288  and  _291
REMARK  123  A    between atoms: _294  and  _296
REMARK  124  A    between atoms: _296  and  _297
REMARK  125  A    between atoms: _296  and  _299
REMARK  126  A    between atoms: _299  and  _300
REMARK  127  A    between atoms: _300  and  _301
REMARK  128  A    between atoms: _303  and  _305
REMARK  129  A    between atoms: _305  and  _306
REMARK  130  A    between atoms: _305  and  _308
REMARK  131  A    between atoms: _308  and  _309
REMARK  132  A    between atoms: _316  and  _317
REMARK  133  A    between atoms: _322  and  _324
REMARK  134  A    between atoms: _324  and  _325
REMARK  135  A    between atoms: _324  and  _327
REMARK  136  A    between atoms: _327  and  _328
REMARK  137  A    between atoms: _331  and  _333
REMARK  138  A    between atoms: _333  and  _334
REMARK  139  A    between atoms: _333  and  _336
REMARK  140  A    between atoms: _336  and  _337
REMARK  141  A    between atoms: _342  and  _343
REMARK  142  A    between atoms: _345  and  _347
REMARK  143  A    between atoms: _347  and  _348
REMARK  144  A    between atoms: _347  and  _350
REMARK  145  A    between atoms: _350  and  _351
REMARK  146  A    between atoms: _351  and  _352
REMARK  147  A    between atoms: _352  and  _353
REMARK  148  A    between atoms: _353  and  _354
REMARK  149  A    between atoms: _358  and  _360
REMARK  150  A    between atoms: _360  and  _361
REMARK  151  A    between atoms: _360  and  _363
REMARK  152  A    between atoms: _363  and  _364
REMARK  153  A    between atoms: _369  and  _370
REMARK  154  A    between atoms: _372  and  _374
REMARK  155  A    between atoms: _374  and  _375
REMARK  156  A    between atoms: _374  and  _377
REMARK  157  A    between atoms: _380  and  _382
REMARK  158  A    between atoms: _382  and  _383
REMARK  159  A    between atoms: _382  and  _385
REMARK  160  A    between atoms: _385  and  _386
REMARK                            x       y       z     vdW  Elec       q    Type
REMARK                         _______ _______ _______ _____ _____    ______ ____
ROOT
ATOM      1  C   THR A   6      -5.808  -8.978  -4.491  0.00  0.00    +0.243 C 
ATOM      2  O   THR A   6      -6.980  -8.972  -4.869  0.00  0.00    -0.273 OA
ATOM      3  N   TYR A   7      -4.805  -9.417  -5.261  0.00  0.00    -0.297 N 
ATOM      4  H   TYR A   7      -3.841  -9.421  -4.871  0.00  0.00    +0.150 HD
ENDROOT
BRANCH   1   5
ATOM      5  CA  THR A   6      -5.440  -8.365  -3.139  0.00  0.00    +0.176 C 
BRANCH   5   8
ATOM      6  C   PRO A   5      -5.771  -6.056  -2.469  0.00  0.00    +0.241 C 
ATOM      7  O   PRO A   5      -4.584  -5.813  -2.400  0.00  0.00    -0.273 OA
ATOM      8  N   THR A   6      -6.264  -7.203  -2.889  0.00  0.00    -0.295 N 
ATOM      9  H   THR A   6      -7.289  -7.276  -3.048  0.00  0.00    +0.150 HD
BRANCH   6  15
ATOM     10  C   PHE A   4      -8.668  -5.284  -3.586  0.00  0.00    +0.244 C 
ATOM     11  N   PRO A   5      -8.206  -5.297  -2.309  0.00  0.00    -0.272 N 
ATOM     12  CD  PRO A   5      -8.967  -5.433  -1.050  0.00  0.00    +0.094 C 
ATOM     13  CG  PRO A   5      -8.098  -4.690  -0.068  0.00  0.00    +0.024 C 
ATOM     14  CB  PRO A   5      -6.727  -4.999  -0.473  0.00  0.00    +0.031 C 
ATOM     15  CA  PRO A   5      -6.774  -5.022  -2.010  0.00  0.00    +0.152 C 
ATOM     16  O   PHE A   4      -7.892  -5.273  -4.560  0.00  0.00    -0.273 OA
BRANCH  10  17
ATOM     17  CA  PHE A   4     -10.201  -5.268  -3.830  0.00  0.00    +0.153 C 
BRANCH  17  20
ATOM     18  C   MET A   3     -10.002  -3.188  -5.124  0.00  0.00    +0.241 C 
ATOM     19  O   MET A   3      -9.648  -2.574  -4.143  0.00  0.00    -0.273 OA
ATOM     20  N   PHE A   4     -10.431  -4.445  -5.046  0.00  0.00    -0.297 N 
ATOM     21  H   PHE A   4     -10.938  -4.861  -5.853  0.00  0.00    +0.150 HD
BRANCH  18  22
ATOM     22  CA  MET A   3      -9.996  -2.505  -6.509  0.00  0.00    +0.149 C 
BRANCH  22  24
ATOM     23  C   VAL A   2     -10.136  -4.197  -8.262  0.00  0.00    +0.241 C 
ATOM     24  N   MET A   3     -10.743  -3.297  -7.492  0.00  0.00    -0.297 N 
ATOM     25  H   MET A   3     -11.768  -3.152  -7.589  0.00  0.00    +0.150 HD
ATOM     26  O   VAL A   2      -8.939  -4.483  -8.120  0.00  0.00    -0.273 OA
BRANCH  23  27
ATOM     27  CA  VAL A   2     -11.036  -4.961  -9.272  0.00  0.00    +0.148 C 
BRANCH  27  30
ATOM     28  C   ALA A   1     -12.809  -5.547  -7.776  0.00  0.00    +0.238 C 
ATOM     29  O   ALA A   1     -12.032  -6.257  -7.117  0.00  0.00    -0.274 OA
ATOM     30  N   VAL A   2     -12.432  -4.922  -8.871  0.00  0.00    -0.297 N 
ATOM     31  H   VAL A   2     -13.128  -4.404  -9.445  0.00  0.00    +0.150 HD
BRANCH  28  32
ATOM     32  CA  ALA A   1     -14.267  -5.370  -7.364  0.00  0.00    +0.145 C 
ATOM     33  CB  ALA A   1     -14.415  -4.195  -6.353  0.00  0.00    +0.028 C 
BRANCH  32  34
ATOM     34  N   ALA A   1     -14.769  -6.610  -6.765  0.00  0.00    -0.238 NA
ATOM     35  H   ALA A   1     -14.782  -6.710  -5.730  0.00  0.00    +0.142 HD
ENDBRANCH  32  34
ENDBRANCH  28  32
ENDBRANCH  27  30
BRANCH  27  36
ATOM     36  CB  VAL A   2     -10.831  -4.481 -10.728  0.00  0.00    +0.027 C 
ATOM     37  CG2 VAL A   2     -10.903  -2.915 -10.832  0.00  0.00    +0.002 C 
ATOM     38  CG1 VAL A   2      -9.474  -5.034 -11.244  0.00  0.00    +0.002 C 
ENDBRANCH  27  36
ENDBRANCH  23  27
ENDBRANCH  22  24
BRANCH  22  39
ATOM     39  CB  MET A   3     -10.629  -1.114  -6.392  0.00  0.00    +0.041 C 
BRANCH  39  40
ATOM     40  CG  MET A   3     -10.597  -0.326  -7.708  0.00  0.00    +0.060 C 
BRANCH  40  41
ATOM     41  SD  MET A   3      -8.941  -0.244  -8.433  0.00  0.00    -0.139 S 
ATOM     42  CE  MET A   3      -8.083   0.649  -7.101  0.00  0.00    +0.069 C 
ENDBRANCH  40  41
ENDBRANCH  39  40
ENDBRANCH  22  39
ENDBRANCH  18  22
ENDBRANCH  17  20
BRANCH  17  43
ATOM     43  CB  PHE A   4     -10.792  -6.680  -4.027  0.00  0.00    +0.055 C 
BRANCH  43  44
ATOM     44  CG  PHE A   4     -10.745  -7.559  -2.787  0.00  0.00    -0.020 A 
ATOM     45  CD2 PHE A   4     -11.622  -7.341  -1.716  0.00  0.00    -0.004 A 
ATOM     46  CE2 PHE A   4     -11.599  -8.148  -0.603  0.00  0.00    -0.000 A 
ATOM     47  CZ  PHE A   4     -10.692  -9.175  -0.528  0.00  0.00    -0.000 A 
ATOM     48  CE1 PHE A   4      -9.810  -9.410  -1.589  0.00  0.00    -0.000 A 
ATOM     49  CD1 PHE A   4      -9.835  -8.607  -2.696  0.00  0.00    -0.004 A 
ENDBRANCH  43  44
ENDBRANCH  17  43
ENDBRANCH  10  17
ENDBRANCH   6  15
ENDBRANCH   5   8
BRANCH   5  50
ATOM     50  CB  THR A   6      -5.627  -9.290  -1.918  0.00  0.00    +0.137 C 
ATOM     51  CG2 THR A   6      -6.015 -10.644  -2.290  0.00  0.00    +0.034 C 
BRANCH  50  52
ATOM     52  OG1 THR A   6      -4.432  -9.221  -1.086  0.00  0.00    -0.382 OA
ATOM     53  HG1 THR A   6      -4.544  -9.812  -0.300  0.00  0.00    +0.210 HD
ENDBRANCH  50  52
ENDBRANCH   5  50
ENDBRANCH   1   5
BRANCH   3  54
ATOM     54  CA  TYR A   7      -5.012  -9.894  -6.635  0.00  0.00    +0.153 C 
BRANCH  54  55
ATOM     55  C   TYR A   7      -5.737 -11.233  -6.737  0.00  0.00    +0.241 C 
ATOM     56  O   TYR A   7      -5.433 -12.171  -6.012  0.00  0.00    -0.273 OA
ATOM     57  N   LYS A   8      -6.670 -11.310  -7.680  0.00  0.00    -0.297 N 
ATOM     58  H   LYS A   8      -6.888 -10.459  -8.237  0.00  0.00    +0.150 HD
BRANCH  57  59
ATOM     59  CA  LYS A   8      -7.392 -12.523  -7.963  0.00  0.00    +0.149 C 
BRANCH  59  60
ATOM     60  C   LYS A   8      -7.726 -12.581  -9.468  0.00  0.00    +0.241 C 
ATOM     61  O   LYS A   8      -8.454 -11.735 -10.010  0.00  0.00    -0.273 OA
ATOM     62  N   TYR A   9      -7.162 -13.561 -10.151  0.00  0.00    -0.297 N 
ATOM     63  H   TYR A   9      -6.600 -14.280  -9.651  0.00  0.00    +0.150 HD
BRANCH  62  64
ATOM     64  CA  TYR A   9      -7.317 -13.645 -11.582  0.00  0.00    +0.153 C 
BRANCH  64  65
ATOM     65  C   TYR A   9      -8.770 -13.935 -11.927  0.00  0.00    +0.241 C 
ATOM     66  O   TYR A   9      -9.402 -14.768 -11.296  0.00  0.00    -0.273 OA
ATOM     67  N   VAL A  10      -9.300 -13.201 -12.898  0.00  0.00    -0.298 N 
ATOM     68  H   VAL A  10      -8.802 -12.340 -13.202  0.00  0.00    +0.150 HD
BRANCH  67  69
ATOM     69  CA  VAL A  10     -10.550 -13.553 -13.554  0.00  0.00    +0.137 C 
BRANCH  69  70
ATOM     70  CB  VAL A  10     -11.759 -12.665 -13.148  0.00  0.00    +0.026 C 
ATOM     71  CG2 VAL A  10     -12.060 -12.802 -11.648  0.00  0.00    +0.002 C 
ATOM     72  CG1 VAL A  10     -11.549 -11.208 -13.518  0.00  0.00    +0.002 C 
ENDBRANCH  69  70
BRANCH  69  73
ATOM     73  C   VAL A  10     -10.339 -13.516 -15.068  0.00  0.00    +0.227 C 
ATOM     74  O   VAL A  10      -9.514 -12.759 -15.589  0.00  0.00    -0.286 OA
ENDBRANCH  69  73
ENDBRANCH  67  69
ENDBRANCH  64  65
BRANCH  64  75
ATOM     75  CB  TYR A   9      -6.460 -14.775 -12.163  0.00  0.00    +0.055 C 
BRANCH  75  76
ATOM     76  CG  TYR A   9      -6.676 -14.855 -13.646  0.00  0.00    -0.020 A 
ATOM     77  CD2 TYR A   9      -7.441 -15.879 -14.229  0.00  0.00    -0.001 A 
ATOM     78  CE2 TYR A   9      -7.678 -15.890 -15.610  0.00  0.00    +0.036 A 
ATOM     79  CZ  TYR A   9      -7.145 -14.868 -16.404  0.00  0.00    +0.134 A 
ATOM     80  CE1 TYR A   9      -6.418 -13.857 -15.848  0.00  0.00    +0.036 A 
ATOM     81  CD1 TYR A   9      -6.180 -13.849 -14.471  0.00  0.00    -0.001 A 
BRANCH  79  82
ATOM     82  OH  TYR A   9      -7.307 -14.823 -17.756  0.00  0.00    -0.506 OA
ATOM     83  HH  TYR A   9      -6.851 -14.021 -18.115  0.00  0.00    +0.292 HD
ENDBRANCH  79  82
ENDBRANCH  75  76
ENDBRANCH  64  75
ENDBRANCH  62  64
ENDBRANCH  59  60
BRANCH  59  84
ATOM     84  CB  LYS A   8      -8.680 -12.562  -7.133  0.00  0.00    +0.029 C 
BRANCH  84  85
ATOM     85  CG  LYS A   8      -9.449 -13.870  -7.306  0.00  0.00    +0.000 C 
BRANCH  85  86
ATOM     86  CD  LYS A   8      -8.609 -15.074  -6.815  0.00  0.00    -0.024 C 
BRANCH  86  87
ATOM     87  CE  LYS A   8      -9.518 -16.207  -6.310  0.00  0.00    -0.086 C 
BRANCH  87  88
ATOM     88  NZ  LYS A   8     -10.572 -16.492  -7.330  0.00  0.00    +0.380 N 
ATOM     89  HZ1 LYS A   8     -11.186 -17.258  -6.987  0.00  0.00    -0.089 HD
ATOM     90  HZ2 LYS A   8     -11.140 -15.635  -7.488  0.00  0.00    -0.089 HD
ATOM     91  HZ3 LYS A   8     -10.121 -16.780  -8.222  0.00  0.00    -0.089 HD
ENDBRANCH  87  88
ENDBRANCH  86  87
ENDBRANCH  85  86
ENDBRANCH  84  85
ENDBRANCH  59  84
ENDBRANCH  57  59
ENDBRANCH  54  55
BRANCH  54  92
ATOM     92  CB  TYR A   7      -3.666  -9.958  -7.401  0.00  0.00    +0.055 C 
BRANCH  92  93
ATOM     93  CG  TYR A   7      -3.630 -10.611  -8.797  0.00  0.00    -0.020 A 
ATOM     94  CD2 TYR A   7      -3.486 -11.991  -8.952  0.00  0.00    -0.001 A 
ATOM     95  CE2 TYR A   7      -3.423 -12.581 -10.202  0.00  0.00    +0.036 A 
ATOM     96  CZ  TYR A   7      -3.495 -11.802 -11.324  0.00  0.00    +0.134 A 
ATOM     97  CE1 TYR A   7      -3.607 -10.397 -11.183  0.00  0.00    +0.036 A 
ATOM     98  CD1 TYR A   7      -3.643  -9.834  -9.952  0.00  0.00    -0.001 A 
BRANCH  96  99
ATOM     99  OH  TYR A   7      -3.395 -12.375 -12.588  0.00  0.00    -0.506 OA
ATOM    100  HH  TYR A   7      -2.521 -12.832 -12.674  0.00  0.00    +0.292 HD
ENDBRANCH  96  99
ENDBRANCH  92  93
ENDBRANCH  54  92
ENDBRANCH   3  54
TORSDOF 39
REMARK  Name = ../refined-set-2016/3ehy/3ehy_pocket.pdb
REMARK  160 active torsions:
REMARK  status: ('A' for Active; 'I' for Inactive)
REMARK    1  A    between atoms: _1  and  _3
REMARK    2  A    between atoms: _3  and  _4
REMARK    3  A    between atoms: _3  and  _6
REMARK    4  A    between atoms: _6  and  _7
REMARK    5  A    between atoms: _12  and  _14
REMARK    6  A    between atoms: _14  and  _15
REMARK    7  A    between atoms: _14  and  _17
REMARK    8  A    between atoms: _17  and  _18
REMARK    9  A    between atoms: _24  and  _26
REMARK   10  A    between atoms: _26  and  _27
REMARK   11  A    between atoms: _26  and  _29
REMARK   12  A    between atoms: _29  and  _30
REMARK   13  A    between atoms: _33  and  _35
REMARK   14  A    between atoms: _35  and  _36
REMARK   15  A    between atoms: _38  and  _40
REMARK   16  A    between atoms: _40  and  _41
REMARK   17  A    between atoms: _43  and  _45
REMARK   18  A    between atoms: _45  and  _46
REMARK   19  A    between atoms: _45  and  _48
REMARK   20  A    between atoms: _46  and  _47
REMARK   21  A    between atoms: _46  and  _52
REMARK   22  A    between atoms: _47  and  CA_393
REMARK   23  A    between atoms: _48  and  _49
REMARK   24  A    between atoms: _52  and  _54
REMARK   25  A    between atoms: _54  and  _55
REMARK   26  A    between atoms: _54  and  _57
REMARK   27  A    between atoms: _57  and  _58
REMARK   28  A    between atoms: _61  and  _63
REMARK   29  A    between atoms: _63  and  _64
REMARK   30  A    between atoms: _67  and  _69
REMARK   31  A    between atoms: _69  and  _70
REMARK   32  A    between atoms: _69  and  _72
REMARK   33  A    between atoms: _72  and  _73
REMARK   34  A    between atoms: _78  and  _80
REMARK   35  A    between atoms: _80  and  _81
REMARK   36  A    between atoms: _84  and  _86
REMARK   37  A    between atoms: _86  and  _87
REMARK   38  A    between atoms: _86  and  _89
REMARK   39  A    between atoms: _89  and  _90
REMARK   40  A    between atoms: _95  and  _97
REMARK   41  A    between atoms: _97  and  _98
REMARK   42  A    between atoms: _97  and  _100
REMARK   43  A    between atoms: _100  and  _101
REMARK   44  A    between atoms: _107  and  _109
REMARK   45  A    between atoms: _109  and  _110
REMARK   46  A    between atoms: _109  and  _112
REMARK   47  A    between atoms: _112  and  _113
REMARK   48  A    between atoms: _116  and  _118
REMARK   49  A    between atoms: _118  and  _119
REMARK   50  A    between atoms: _118  and  _121
REMARK   51  A    between atoms: _121  and  _122
REMARK   52  A    between atoms: _122  and  _123
REMARK   53  A    between atoms: _123  and  _125
REMARK   54  A    between atoms: _125  and  CA_393
REMARK   55  A    between atoms: _126  and  _128
REMARK   56  A    between atoms: _128  and  _129
REMARK   57  A    between atoms: _128  and  _131
REMARK   58  A    between atoms: _131  and  _132
REMARK   59  A    between atoms: _142  and  _144
REMARK   60  A    between atoms: _144  and  _145
REMARK   61  A    between atoms: _144  and  _147
REMARK   62  A    between atoms: _147  and  _148
REMARK   63  A    between atoms: _151  and  _153
REMARK   64  A    between atoms: _153  and  _154
REMARK   65  A    between atoms: _153  and  _156
REMARK   66  A    between atoms: _156  and  _157
REMARK   67  A    between atoms: _162  and  _164
REMARK   68  A    between atoms: _164  and  _165
REMARK   69  A    between atoms: _164  and  _167
REMARK   70  A    between atoms: _167  and  _168
REMARK   71  A    between atoms: _171  and  _173
REMARK   72  A    between atoms: _173  and  _174
REMARK   73  A    between atoms: _173  and  _176
REMARK   74  A    between atoms: _176  and  _177
REMARK   75  A    between atoms: _183  and  _185
REMARK   76  A    between atoms: _185  and  _186
REMARK   77  A    between atoms: _185  and  _188
REMARK   78  A    between atoms: _188  and  _189
REMARK   79  A    between atoms: _192  and  _194
REMARK   80  A    between atoms: _194  and  _195
REMARK   81  A    between atoms: _194  and  _197
REMARK   82  A    between atoms: _197  and  _198
REMARK   83  A    between atoms: _201  and  _203
REMARK   84  A    between atoms: _203  and  _204
REMARK   85  A    between atoms: _207  and  _209
REMARK   86  A    between atoms: _209  and  _210
REMARK   87  A    between atoms: _209  and  _212
REMARK   88  A    between atoms: _215  and  _217
REMARK   89  A    between atoms: _217  and  _218
REMARK   90  A    between atoms: _217  and  _220
REMARK   91  A    between atoms: _220  and  _221
REMARK   92  A    between atoms: _225  and  ZN_392
REMARK   93  A    between atoms: _226  and  _228
REMARK   94  A    between atoms: _228  and  _229
REMARK   95  A    between atoms: _228  and  _231
REMARK   96  A    between atoms: _231  and  _232
REMARK   97  A    between atoms: _232  and  _233
REMARK   98  A    between atoms: _236  and  _238
REMARK   99  A    between atoms: _238  and  _239
REMARK  100  A    between atoms: _238  and  _241
REMARK  101  A    between atoms: _241  and  _242
REMARK  102  A    between atoms: _245  and  _247
REMARK  103  A    between atoms: _247  and  _248
REMARK  104  A    between atoms: _247  and  _250
REMARK  105  A    between atoms: _250  and  _251
REMARK  106  A    between atoms: _255  and  ZN_392
REMARK  107  A    between atoms: _256  and  _258
REMARK  108  A    between atoms: _258  and  _259
REMARK  109  A    between atoms: _258  and  _261
REMARK  110  A    between atoms: _261  and  _262
REMARK  111  A    between atoms: _264  and  _266
REMARK  112  A    between atoms: _266  and  _267
REMARK  113  A    between atoms: _269  and  _271
REMARK  114  A    between atoms: _271  and  _272
REMARK  115  A    between atoms: _271  and  _274
REMARK  116  A    between atoms: _274  and  _275
REMARK  117  A    between atoms: _279  and  ZN_392
REMARK  118  A    between atoms: _280  and  _282
REMARK  119  A    between atoms: _282  and  _283
REMARK  120  A    between atoms: _286  and  _288
REMARK  121  A    between atoms: _288  and  _289
REMARK  122  A    between atoms: _288  and  _291
REMARK  123  A    between atoms: _294  and  _296
REMARK  124  A    between atoms: _296  and  _297
REMARK  125  A    between atoms: _296  and  _299
REMARK  126  A    between atoms: _299  and  _300
REMARK  127  A    between atoms: _300  and  _301
REMARK  128  A    between atoms: _303  and  _305
REMARK  129  A    between atoms: _305  and  _306
REMARK  130  A    between atoms: _305  and  _308
REMARK  131  A    between atoms: _308  and  _309
REMARK  132  A    between atoms: _316  and  _317
REMARK  133  A    between atoms: _322  and  _324
REMARK  134  A    between atoms: _324  and  _325
REMARK  135  A    between atoms: _324  and  _327
REMARK  136  A    between atoms: _327  and  _328
REMARK  137  A    between atoms: _331  and  _333
REMARK  138  A    between atoms: _333  and  _334
REMARK  139  A    between atoms: _333  and  _336
REMARK  140  A    between atoms: _336  and  _337
REMARK  141  A    between atoms: _342  and  _343
REMARK  142  A    between atoms: _345  and  _347
REMARK  143  A    between atoms: _347  and  _348
REMARK  144  A    between atoms: _347  and  _350
REMARK  145  A    between atoms: _350  and  _351
REMARK  146  A    between atoms: _351  and  _352
REMARK  147  A    between atoms: _352  and  _353
REMARK  148  A    between atoms: _353  and  _354
REMARK  149  A    between atoms: _358  and  _360
REMARK  150  A    between atoms: _360  and  _361
REMARK  151  A    between atoms: _360  and  _363
REMARK  152  A    between atoms: _363  and  _364
REMARK  153  A    between atoms: _369  and  _370
REMARK  154  A    between atoms: _372  and  _374
REMARK  155  A    between atoms: _374  and  _375
REMARK  156  A    between atoms: _374  and  _377
REMARK  157  A    between atoms: _380  and  _382
REMARK  158  A    between atoms: _382  and  _383
REMARK  159  A    between atoms: _382  and  _385
REMARK  160  A    between atoms: _385  and  _386
REMARK                            x       y       z     vdW  Elec       q    Type
REMARK                         _______ _______ _______ _____ _____    ______ ____
ROOT
ATOM      1  CB  PHE A   1     -12.333  -8.304 -17.658  0.00  0.00    +0.051 C 
ENDROOT
BRANCH   1   2
ATOM      2  CG  PHE A   1     -12.152  -7.349 -16.545  0.00  0.00    -0.020 A 
ATOM      3  CD2 PHE A   1     -11.895  -7.820 -15.255  0.00  0.00    -0.004 A 
ATOM      4  CE2 PHE A   1     -11.766  -6.929 -14.215  0.00  0.00    -0.000 A 
ATOM      5  CZ  PHE A   1     -11.881  -5.559 -14.461  0.00  0.00    -0.000 A 
ATOM      6  CE1 PHE A   1     -12.178  -5.095 -15.738  0.00  0.00    -0.000 A 
ATOM      7  CD1 PHE A   1     -12.314  -5.984 -16.758  0.00  0.00    -0.004 A 
ENDBRANCH   1   2
BRANCH   1   8
ATOM      8  CA  PHE A   1     -13.722  -8.931 -17.662  0.00  0.00    +0.137 C 
BRANCH   8   9
ATOM      9  N   PHE A   1     -13.834  -9.909 -18.746  0.00  0.00    -0.239 NA
ATOM     10  H   PHE A   1     -12.978 -10.242 -19.233  0.00  0.00    +0.142 HD
ENDBRANCH   8   9
BRANCH   8  11
ATOM     11  C   PHE A   1     -14.735  -7.774 -17.697  0.00  0.00    +0.224 C 
ATOM     12  O   PHE A   1     -14.940  -7.158 -18.746  0.00  0.00    -0.287 OA
ENDBRANCH   8  11
ENDBRANCH   1   8
TORSDOF 4
REMARK  Name = ../refined-set-2016/3ehy/3ehy_pocket.pdb
REMARK  160 active torsions:
REMARK  status: ('A' for Active; 'I' for Inactive)
REMARK    1  A    between atoms: _1  and  _3
REMARK    2  A    between atoms: _3  and  _4
REMARK    3  A    between atoms: _3  and  _6
REMARK    4  A    between atoms: _6  and  _7
REMARK    5  A    between atoms: _12  and  _14
REMARK    6  A    between atoms: _14  and  _15
REMARK    7  A    between atoms: _14  and  _17
REMARK    8  A    between atoms: _17  and  _18
REMARK    9  A    between atoms: _24  and  _26
REMARK   10  A    between atoms: _26  and  _27
REMARK   11  A    between atoms: _26  and  _29
REMARK   12  A    between atoms: _29  and  _30
REMARK   13  A    between atoms: _33  and  _35
REMARK   14  A    between atoms: _35  and  _36
REMARK   15  A    between atoms: _38  and  _40
REMARK   16  A    between atoms: _40  and  _41
REMARK   17  A    between atoms: _43  and  _45
REMARK   18  A    between atoms: _45  and  _46
REMARK   19  A    between atoms: _45  and  _48
REMARK   20  A    between atoms: _46  and  _47
REMARK   21  A    between atoms: _46  and  _52
REMARK   22  A    between atoms: _47  and  CA_393
REMARK   23  A    between atoms: _48  and  _49
REMARK   24  A    between atoms: _52  and  _54
REMARK   25  A    between atoms: _54  and  _55
REMARK   26  A    between atoms: _54  and  _57
REMARK   27  A    between atoms: _57  and  _58
REMARK   28  A    between atoms: _61  and  _63
REMARK   29  A    between atoms: _63  and  _64
REMARK   30  A    between atoms: _67  and  _69
REMARK   31  A    between atoms: _69  and  _70
REMARK   32  A    between atoms: _69  and  _72
REMARK   33  A    between atoms: _72  and  _73
REMARK   34  A    between atoms: _78  and  _80
REMARK   35  A    between atoms: _80  and  _81
REMARK   36  A    between atoms: _84  and  _86
REMARK   37  A    between atoms: _86  and  _87
REMARK   38  A    between atoms: _86  and  _89
REMARK   39  A    between atoms: _89  and  _90
REMARK   40  A    between atoms: _95  and  _97
REMARK   41  A    between atoms: _97  and  _98
REMARK   42  A    between atoms: _97  and  _100
REMARK   43  A    between atoms: _100  and  _101
REMARK   44  A    between atoms: _107  and  _109
REMARK   45  A    between atoms: _109  and  _110
REMARK   46  A    between atoms: _109  and  _112
REMARK   47  A    between atoms: _112  and  _113
REMARK   48  A    between atoms: _116  and  _118
REMARK   49  A    between atoms: _118  and  _119
REMARK   50  A    between atoms: _118  and  _121
REMARK   51  A    between atoms: _121  and  _122
REMARK   52  A    between atoms: _122  and  _123
REMARK   53  A    between atoms: _123  and  _125
REMARK   54  A    between atoms: _125  and  CA_393
REMARK   55  A    between atoms: _126  and  _128
REMARK   56  A    between atoms: _128  and  _129
REMARK   57  A    between atoms: _128  and  _131
REMARK   58  A    between atoms: _131  and  _132
REMARK   59  A    between atoms: _142  and  _144
REMARK   60  A    between atoms: _144  and  _145
REMARK   61  A    between atoms: _144  and  _147
REMARK   62  A    between atoms: _147  and  _148
REMARK   63  A    between atoms: _151  and  _153
REMARK   64  A    between atoms: _153  and  _154
REMARK   65  A    between atoms: _153  and  _156
REMARK   66  A    between atoms: _156  and  _157
REMARK   67  A    between atoms: _162  and  _164
REMARK   68  A    between atoms: _164  and  _165
REMARK   69  A    between atoms: _164  and  _167
REMARK   70  A    between atoms: _167  and  _168
REMARK   71  A    between atoms: _171  and  _173
REMARK   72  A    between atoms: _173  and  _174
REMARK   73  A    between atoms: _173  and  _176
REMARK   74  A    between atoms: _176  and  _177
REMARK   75  A    between atoms: _183  and  _185
REMARK   76  A    between atoms: _185  and  _186
REMARK   77  A    between atoms: _185  and  _188
REMARK   78  A    between atoms: _188  and  _189
REMARK   79  A    between atoms: _192  and  _194
REMARK   80  A    between atoms: _194  and  _195
REMARK   81  A    between atoms: _194  and  _197
REMARK   82  A    between atoms: _197  and  _198
REMARK   83  A    between atoms: _201  and  _203
REMARK   84  A    between atoms: _203  and  _204
REMARK   85  A    between atoms: _207  and  _209
REMARK   86  A    between atoms: _209  and  _210
REMARK   87  A    between atoms: _209  and  _212
REMARK   88  A    between atoms: _215  and  _217
REMARK   89  A    between atoms: _217  and  _218
REMARK   90  A    between atoms: _217  and  _220
REMARK   91  A    between atoms: _220  and  _221
REMARK   92  A    between atoms: _225  and  ZN_392
REMARK   93  A    between atoms: _226  and  _228
REMARK   94  A    between atoms: _228  and  _229
REMARK   95  A    between atoms: _228  and  _231
REMARK   96  A    between atoms: _231  and  _232
REMARK   97  A    between atoms: _232  and  _233
REMARK   98  A    between atoms: _236  and  _238
REMARK   99  A    between atoms: _238  and  _239
REMARK  100  A    between atoms: _238  and  _241
REMARK  101  A    between atoms: _241  and  _242
REMARK  102  A    between atoms: _245  and  _247
REMARK  103  A    between atoms: _247  and  _248
REMARK  104  A    between atoms: _247  and  _250
REMARK  105  A    between atoms: _250  and  _251
REMARK  106  A    between atoms: _255  and  ZN_392
REMARK  107  A    between atoms: _256  and  _258
REMARK  108  A    between atoms: _258  and  _259
REMARK  109  A    between atoms: _258  and  _261
REMARK  110  A    between atoms: _261  and  _262
REMARK  111  A    between atoms: _264  and  _266
REMARK  112  A    between atoms: _266  and  _267
REMARK  113  A    between atoms: _269  and  _271
REMARK  114  A    between atoms: _271  and  _272
REMARK  115  A    between atoms: _271  and  _274
REMARK  116  A    between atoms: _274  and  _275
REMARK  117  A    between atoms: _279  and  ZN_392
REMARK  118  A    between atoms: _280  and  _282
REMARK  119  A    between atoms: _282  and  _283
REMARK  120  A    between atoms: _286  and  _288
REMARK  121  A    between atoms: _288  and  _289
REMARK  122  A    between atoms: _288  and  _291
REMARK  123  A    between atoms: _294  and  _296
REMARK  124  A    between atoms: _296  and  _297
REMARK  125  A    between atoms: _296  and  _299
REMARK  126  A    between atoms: _299  and  _300
REMARK  127  A    between atoms: _300  and  _301
REMARK  128  A    between atoms: _303  and  _305
REMARK  129  A    between atoms: _305  and  _306
REMARK  130  A    between atoms: _305  and  _308
REMARK  131  A    between atoms: _308  and  _309
REMARK  132  A    between atoms: _316  and  _317
REMARK  133  A    between atoms: _322  and  _324
REMARK  134  A    between atoms: _324  and  _325
REMARK  135  A    between atoms: _324  and  _327
REMARK  136  A    between atoms: _327  and  _328
REMARK  137  A    between atoms: _331  and  _333
REMARK  138  A    between atoms: _333  and  _334
REMARK  139  A    between atoms: _333  and  _336
REMARK  140  A    between atoms: _336  and  _337
REMARK  141  A    between atoms: _342  and  _343
REMARK  142  A    between atoms: _345  and  _347
REMARK  143  A    between atoms: _347  and  _348
REMARK  144  A    between atoms: _347  and  _350
REMARK  145  A    between atoms: _350  and  _351
REMARK  146  A    between atoms: _351  and  _352
REMARK  147  A    between atoms: _352  and  _353
REMARK  148  A    between atoms: _353  and  _354
REMARK  149  A    between atoms: _358  and  _360
REMARK  150  A    between atoms: _360  and  _361
REMARK  151  A    between atoms: _360  and  _363
REMARK  152  A    between atoms: _363  and  _364
REMARK  153  A    between atoms: _369  and  _370
REMARK  154  A    between atoms: _372  and  _374
REMARK  155  A    between atoms: _374  and  _375
REMARK  156  A    between atoms: _374  and  _377
REMARK  157  A    between atoms: _380  and  _382
REMARK  158  A    between atoms: _382  and  _383
REMARK  159  A    between atoms: _382  and  _385
REMARK  160  A    between atoms: _385  and  _386
REMARK                            x       y       z     vdW  Elec       q    Type
REMARK                         _______ _______ _______ _____ _____    ______ ____
ROOT
ATOM      1  O   HOH     1      -0.667   1.178  -5.380  0.00  0.00    +0.000 OA
ENDROOT
TORSDOF 0
REMARK  Name = ../refined-set-2016/3ehy/3ehy_pocket.pdb
REMARK  160 active torsions:
REMARK  status: ('A' for Active; 'I' for Inactive)
REMARK    1  A    between atoms: _1  and  _3
REMARK    2  A    between atoms: _3  and  _4
REMARK    3  A    between atoms: _3  and  _6
REMARK    4  A    between atoms: _6  and  _7
REMARK    5  A    between atoms: _12  and  _14
REMARK    6  A    between atoms: _14  and  _15
REMARK    7  A    between atoms: _14  and  _17
REMARK    8  A    between atoms: _17  and  _18
REMARK    9  A    between atoms: _24  and  _26
REMARK   10  A    between atoms: _26  and  _27
REMARK   11  A    between atoms: _26  and  _29
REMARK   12  A    between atoms: _29  and  _30
REMARK   13  A    between atoms: _33  and  _35
REMARK   14  A    between atoms: _35  and  _36
REMARK   15  A    between atoms: _38  and  _40
REMARK   16  A    between atoms: _40  and  _41
REMARK   17  A    between atoms: _43  and  _45
REMARK   18  A    between atoms: _45  and  _46
REMARK   19  A    between atoms: _45  and  _48
REMARK   20  A    between atoms: _46  and  _47
REMARK   21  A    between atoms: _46  and  _52
REMARK   22  A    between atoms: _47  and  CA_393
REMARK   23  A    between atoms: _48  and  _49
REMARK   24  A    between atoms: _52  and  _54
REMARK   25  A    between atoms: _54  and  _55
REMARK   26  A    between atoms: _54  and  _57
REMARK   27  A    between atoms: _57  and  _58
REMARK   28  A    between atoms: _61  and  _63
REMARK   29  A    between atoms: _63  and  _64
REMARK   30  A    between atoms: _67  and  _69
REMARK   31  A    between atoms: _69  and  _70
REMARK   32  A    between atoms: _69  and  _72
REMARK   33  A    between atoms: _72  and  _73
REMARK   34  A    between atoms: _78  and  _80
REMARK   35  A    between atoms: _80  and  _81
REMARK   36  A    between atoms: _84  and  _86
REMARK   37  A    between atoms: _86  and  _87
REMARK   38  A    between atoms: _86  and  _89
REMARK   39  A    between atoms: _89  and  _90
REMARK   40  A    between atoms: _95  and  _97
REMARK   41  A    between atoms: _97  and  _98
REMARK   42  A    between atoms: _97  and  _100
REMARK   43  A    between atoms: _100  and  _101
REMARK   44  A    between atoms: _107  and  _109
REMARK   45  A    between atoms: _109  and  _110
REMARK   46  A    between atoms: _109  and  _112
REMARK   47  A    between atoms: _112  and  _113
REMARK   48  A    between atoms: _116  and  _118
REMARK   49  A    between atoms: _118  and  _119
REMARK   50  A    between atoms: _118  and  _121
REMARK   51  A    between atoms: _121  and  _122
REMARK   52  A    between atoms: _122  and  _123
REMARK   53  A    between atoms: _123  and  _125
REMARK   54  A    between atoms: _125  and  CA_393
REMARK   55  A    between atoms: _126  and  _128
REMARK   56  A    between atoms: _128  and  _129
REMARK   57  A    between atoms: _128  and  _131
REMARK   58  A    between atoms: _131  and  _132
REMARK   59  A    between atoms: _142  and  _144
REMARK   60  A    between atoms: _144  and  _145
REMARK   61  A    between atoms: _144  and  _147
REMARK   62  A    between atoms: _147  and  _148
REMARK   63  A    between atoms: _151  and  _153
REMARK   64  A    between atoms: _153  and  _154
REMARK   65  A    between atoms: _153  and  _156
REMARK   66  A    between atoms: _156  and  _157
REMARK   67  A    between atoms: _162  and  _164
REMARK   68  A    between atoms: _164  and  _165
REMARK   69  A    between atoms: _164  and  _167
REMARK   70  A    between atoms: _167  and  _168
REMARK   71  A    between atoms: _171  and  _173
REMARK   72  A    between atoms: _173  and  _174
REMARK   73  A    between atoms: _173  and  _176
REMARK   74  A    between atoms: _176  and  _177
REMARK   75  A    between atoms: _183  and  _185
REMARK   76  A    between atoms: _185  and  _186
REMARK   77  A    between atoms: _185  and  _188
REMARK   78  A    between atoms: _188  and  _189
REMARK   79  A    between atoms: _192  and  _194
REMARK   80  A    between atoms: _194  and  _195
REMARK   81  A    between atoms: _194  and  _197
REMARK   82  A    between atoms: _197  and  _198
REMARK   83  A    between atoms: _201  and  _203
REMARK   84  A    between atoms: _203  and  _204
REMARK   85  A    between atoms: _207  and  _209
REMARK   86  A    between atoms: _209  and  _210
REMARK   87  A    between atoms: _209  and  _212
REMARK   88  A    between atoms: _215  and  _217
REMARK   89  A    between atoms: _217  and  _218
REMARK   90  A    between atoms: _217  and  _220
REMARK   91  A    between atoms: _220  and  _221
REMARK   92  A    between atoms: _225  and  ZN_392
REMARK   93  A    between atoms: _226  and  _228
REMARK   94  A    between atoms: _228  and  _229
REMARK   95  A    between atoms: _228  and  _231
REMARK   96  A    between atoms: _231  and  _232
REMARK   97  A    between atoms: _232  and  _233
REMARK   98  A    between atoms: _236  and  _238
REMARK   99  A    between atoms: _238  and  _239
REMARK  100  A    between atoms: _238  and  _241
REMARK  101  A    between atoms: _241  and  _242
REMARK  102  A    between atoms: _245  and  _247
REMARK  103  A    between atoms: _247  and  _248
REMARK  104  A    between atoms: _247  and  _250
REMARK  105  A    between atoms: _250  and  _251
REMARK  106  A    between atoms: _255  and  ZN_392
REMARK  107  A    between atoms: _256  and  _258
REMARK  108  A    between atoms: _258  and  _259
REMARK  109  A    between atoms: _258  and  _261
REMARK  110  A    between atoms: _261  and  _262
REMARK  111  A    between atoms: _264  and  _266
REMARK  112  A    between atoms: _266  and  _267
REMARK  113  A    between atoms: _269  and  _271
REMARK  114  A    between atoms: _271  and  _272
REMARK  115  A    between atoms: _271  and  _274
REMARK  116  A    between atoms: _274  and  _275
REMARK  117  A    between atoms: _279  and  ZN_392
REMARK  118  A    between atoms: _280  and  _282
REMARK  119  A    between atoms: _282  and  _283
REMARK  120  A    between atoms: _286  and  _288
REMARK  121  A    between atoms: _288  and  _289
REMARK  122  A    between atoms: _288  and  _291
REMARK  123  A    between atoms: _294  and  _296
REMARK  124  A    between atoms: _296  and  _297
REMARK  125  A    between atoms: _296  and  _299
REMARK  126  A    between atoms: _299  and  _300
REMARK  127  A    between atoms: _300  and  _301
REMARK  128  A    between atoms: _303  and  _305
REMARK  129  A    between atoms: _305  and  _306
REMARK  130  A    between atoms: _305  and  _308
REMARK  131  A    between atoms: _308  and  _309
REMARK  132  A    between atoms: _316  and  _317
REMARK  133  A    between atoms: _322  and  _324
REMARK  134  A    between atoms: _324  and  _325
REMARK  135  A    between atoms: _324  and  _327
REMARK  136  A    between atoms: _327  and  _328
REMARK  137  A    between atoms: _331  and  _333
REMARK  138  A    between atoms: _333  and  _334
REMARK  139  A    between atoms: _333  and  _336
REMARK  140  A    between atoms: _336  and  _337
REMARK  141  A    between atoms: _342  and  _343
REMARK  142  A    between atoms: _345  and  _347
REMARK  143  A    between atoms: _347  and  _348
REMARK  144  A    between atoms: _347  and  _350
REMARK  145  A    between atoms: _350  and  _351
REMARK  146  A    between atoms: _351  and  _352
REMARK  147  A    between atoms: _352  and  _353
REMARK  148  A    between atoms: _353  and  _354
REMARK  149  A    between atoms: _358  and  _360
REMARK  150  A    between atoms: _360  and  _361
REMARK  151  A    between atoms: _360  and  _363
REMARK  152  A    between atoms: _363  and  _364
REMARK  153  A    between atoms: _369  and  _370
REMARK  154  A    between atoms: _372  and  _374
REMARK  155  A    between atoms: _374  and  _375
REMARK  156  A    between atoms: _374  and  _377
REMARK  157  A    between atoms: _380  and  _382
REMARK  158  A    between atoms: _382  and  _383
REMARK  159  A    between atoms: _382  and  _385
REMARK  160  A    between atoms: _385  and  _386
REMARK                            x       y       z     vdW  Elec       q    Type
REMARK                         _______ _______ _______ _____ _____    ______ ____
ROOT
ATOM      1  O   HOH     1      -2.296  -9.356  -4.439  0.00  0.00    +0.000 OA
ENDROOT
TORSDOF 0
REMARK  Name = ../refined-set-2016/3ehy/3ehy_pocket.pdb
REMARK  160 active torsions:
REMARK  status: ('A' for Active; 'I' for Inactive)
REMARK    1  A    between atoms: _1  and  _3
REMARK    2  A    between atoms: _3  and  _4
REMARK    3  A    between atoms: _3  and  _6
REMARK    4  A    between atoms: _6  and  _7
REMARK    5  A    between atoms: _12  and  _14
REMARK    6  A    between atoms: _14  and  _15
REMARK    7  A    between atoms: _14  and  _17
REMARK    8  A    between atoms: _17  and  _18
REMARK    9  A    between atoms: _24  and  _26
REMARK   10  A    between atoms: _26  and  _27
REMARK   11  A    between atoms: _26  and  _29
REMARK   12  A    between atoms: _29  and  _30
REMARK   13  A    between atoms: _33  and  _35
REMARK   14  A    between atoms: _35  and  _36
REMARK   15  A    between atoms: _38  and  _40
REMARK   16  A    between atoms: _40  and  _41
REMARK   17  A    between atoms: _43  and  _45
REMARK   18  A    between atoms: _45  and  _46
REMARK   19  A    between atoms: _45  and  _48
REMARK   20  A    between atoms: _46  and  _47
REMARK   21  A    between atoms: _46  and  _52
REMARK   22  A    between atoms: _47  and  CA_393
REMARK   23  A    between atoms: _48  and  _49
REMARK   24  A    between atoms: _52  and  _54
REMARK   25  A    between atoms: _54  and  _55
REMARK   26  A    between atoms: _54  and  _57
REMARK   27  A    between atoms: _57  and  _58
REMARK   28  A    between atoms: _61  and  _63
REMARK   29  A    between atoms: _63  and  _64
REMARK   30  A    between atoms: _67  and  _69
REMARK   31  A    between atoms: _69  and  _70
REMARK   32  A    between atoms: _69  and  _72
REMARK   33  A    between atoms: _72  and  _73
REMARK   34  A    between atoms: _78  and  _80
REMARK   35  A    between atoms: _80  and  _81
REMARK   36  A    between atoms: _84  and  _86
REMARK   37  A    between atoms: _86  and  _87
REMARK   38  A    between atoms: _86  and  _89
REMARK   39  A    between atoms: _89  and  _90
REMARK   40  A    between atoms: _95  and  _97
REMARK   41  A    between atoms: _97  and  _98
REMARK   42  A    between atoms: _97  and  _100
REMARK   43  A    between atoms: _100  and  _101
REMARK   44  A    between atoms: _107  and  _109
REMARK   45  A    between atoms: _109  and  _110
REMARK   46  A    between atoms: _109  and  _112
REMARK   47  A    between atoms: _112  and  _113
REMARK   48  A    between atoms: _116  and  _118
REMARK   49  A    between atoms: _118  and  _119
REMARK   50  A    between atoms: _118  and  _121
REMARK   51  A    between atoms: _121  and  _122
REMARK   52  A    between atoms: _122  and  _123
REMARK   53  A    between atoms: _123  and  _125
REMARK   54  A    between atoms: _125  and  CA_393
REMARK   55  A    between atoms: _126  and  _128
REMARK   56  A    between atoms: _128  and  _129
REMARK   57  A    between atoms: _128  and  _131
REMARK   58  A    between atoms: _131  and  _132
REMARK   59  A    between atoms: _142  and  _144
REMARK   60  A    between atoms: _144  and  _145
REMARK   61  A    between atoms: _144  and  _147
REMARK   62  A    between atoms: _147  and  _148
REMARK   63  A    between atoms: _151  and  _153
REMARK   64  A    between atoms: _153  and  _154
REMARK   65  A    between atoms: _153  and  _156
REMARK   66  A    between atoms: _156  and  _157
REMARK   67  A    between atoms: _162  and  _164
REMARK   68  A    between atoms: _164  and  _165
REMARK   69  A    between atoms: _164  and  _167
REMARK   70  A    between atoms: _167  and  _168
REMARK   71  A    between atoms: _171  and  _173
REMARK   72  A    between atoms: _173  and  _174
REMARK   73  A    between atoms: _173  and  _176
REMARK   74  A    between atoms: _176  and  _177
REMARK   75  A    between atoms: _183  and  _185
REMARK   76  A    between atoms: _185  and  _186
REMARK   77  A    between atoms: _185  and  _188
REMARK   78  A    between atoms: _188  and  _189
REMARK   79  A    between atoms: _192  and  _194
REMARK   80  A    between atoms: _194  and  _195
REMARK   81  A    between atoms: _194  and  _197
REMARK   82  A    between atoms: _197  and  _198
REMARK   83  A    between atoms: _201  and  _203
REMARK   84  A    between atoms: _203  and  _204
REMARK   85  A    between atoms: _207  and  _209
REMARK   86  A    between atoms: _209  and  _210
REMARK   87  A    between atoms: _209  and  _212
REMARK   88  A    between atoms: _215  and  _217
REMARK   89  A    between atoms: _217  and  _218
REMARK   90  A    between atoms: _217  and  _220
REMARK   91  A    between atoms: _220  and  _221
REMARK   92  A    between atoms: _225  and  ZN_392
REMARK   93  A    between atoms: _226  and  _228
REMARK   94  A    between atoms: _228  and  _229
REMARK   95  A    between atoms: _228  and  _231
REMARK   96  A    between atoms: _231  and  _232
REMARK   97  A    between atoms: _232  and  _233
REMARK   98  A    between atoms: _236  and  _238
REMARK   99  A    between atoms: _238  and  _239
REMARK  100  A    between atoms: _238  and  _241
REMARK  101  A    between atoms: _241  and  _242
REMARK  102  A    between atoms: _245  and  _247
REMARK  103  A    between atoms: _247  and  _248
REMARK  104  A    between atoms: _247  and  _250
REMARK  105  A    between atoms: _250  and  _251
REMARK  106  A    between atoms: _255  and  ZN_392
REMARK  107  A    between atoms: _256  and  _258
REMARK  108  A    between atoms: _258  and  _259
REMARK  109  A    between atoms: _258  and  _261
REMARK  110  A    between atoms: _261  and  _262
REMARK  111  A    between atoms: _264  and  _266
REMARK  112  A    between atoms: _266  and  _267
REMARK  113  A    between atoms: _269  and  _271
REMARK  114  A    between atoms: _271  and  _272
REMARK  115  A    between atoms: _271  and  _274
REMARK  116  A    between atoms: _274  and  _275
REMARK  117  A    between atoms: _279  and  ZN_392
REMARK  118  A    between atoms: _280  and  _282
REMARK  119  A    between atoms: _282  and  _283
REMARK  120  A    between atoms: _286  and  _288
REMARK  121  A    between atoms: _288  and  _289
REMARK  122  A    between atoms: _288  and  _291
REMARK  123  A    between atoms: _294  and  _296
REMARK  124  A    between atoms: _296  and  _297
REMARK  125  A    between atoms: _296  and  _299
REMARK  126  A    between atoms: _299  and  _300
REMARK  127  A    between atoms: _300  and  _301
REMARK  128  A    between atoms: _303  and  _305
REMARK  129  A    between atoms: _305  and  _306
REMARK  130  A    between atoms: _305  and  _308
REMARK  131  A    between atoms: _308  and  _309
REMARK  132  A    between atoms: _316  and  _317
REMARK  133  A    between atoms: _322  and  _324
REMARK  134  A    between atoms: _324  and  _325
REMARK  135  A    between atoms: _324  and  _327
REMARK  136  A    between atoms: _327  and  _328
REMARK  137  A    between atoms: _331  and  _333
REMARK  138  A    between atoms: _333  and  _334
REMARK  139  A    between atoms: _333  and  _336
REMARK  140  A    between atoms: _336  and  _337
REMARK  141  A    between atoms: _342  and  _343
REMARK  142  A    between atoms: _345  and  _347
REMARK  143  A    between atoms: _347  and  _348
REMARK  144  A    between atoms: _347  and  _350
REMARK  145  A    between atoms: _350  and  _351
REMARK  146  A    between atoms: _351  and  _352
REMARK  147  A    between atoms: _352  and  _353
REMARK  148  A    between atoms: _353  and  _354
REMARK  149  A    between atoms: _358  and  _360
REMARK  150  A    between atoms: _360  and  _361
REMARK  151  A    between atoms: _360  and  _363
REMARK  152  A    between atoms: _363  and  _364
REMARK  153  A    between atoms: _369  and  _370
REMARK  154  A    between atoms: _372  and  _374
REMARK  155  A    between atoms: _374  and  _375
REMARK  156  A    between atoms: _374  and  _377
REMARK  157  A    between atoms: _380  and  _382
REMARK  158  A    between atoms: _382  and  _383
REMARK  159  A    between atoms: _382  and  _385
REMARK  160  A    between atoms: _385  and  _386
REMARK                            x       y       z     vdW  Elec       q    Type
REMARK                         _______ _______ _______ _____ _____    ______ ____
ROOT
ATOM      1  O   HOH     1       2.332   3.860  -4.417  0.00  0.00    +0.000 OA
ENDROOT
TORSDOF 0
REMARK  Name = ../refined-set-2016/3ehy/3ehy_pocket.pdb
REMARK  160 active torsions:
REMARK  status: ('A' for Active; 'I' for Inactive)
REMARK    1  A    between atoms: _1  and  _3
REMARK    2  A    between atoms: _3  and  _4
REMARK    3  A    between atoms: _3  and  _6
REMARK    4  A    between atoms: _6  and  _7
REMARK    5  A    between atoms: _12  and  _14
REMARK    6  A    between atoms: _14  and  _15
REMARK    7  A    between atoms: _14  and  _17
REMARK    8  A    between atoms: _17  and  _18
REMARK    9  A    between atoms: _24  and  _26
REMARK   10  A    between atoms: _26  and  _27
REMARK   11  A    between atoms: _26  and  _29
REMARK   12  A    between atoms: _29  and  _30
REMARK   13  A    between atoms: _33  and  _35
REMARK   14  A    between atoms: _35  and  _36
REMARK   15  A    between atoms: _38  and  _40
REMARK   16  A    between atoms: _40  and  _41
REMARK   17  A    between atoms: _43  and  _45
REMARK   18  A    between atoms: _45  and  _46
REMARK   19  A    between atoms: _45  and  _48
REMARK   20  A    between atoms: _46  and  _47
REMARK   21  A    between atoms: _46  and  _52
REMARK   22  A    between atoms: _47  and  CA_393
REMARK   23  A    between atoms: _48  and  _49
REMARK   24  A    between atoms: _52  and  _54
REMARK   25  A    between atoms: _54  and  _55
REMARK   26  A    between atoms: _54  and  _57
REMARK   27  A    between atoms: _57  and  _58
REMARK   28  A    between atoms: _61  and  _63
REMARK   29  A    between atoms: _63  and  _64
REMARK   30  A    between atoms: _67  and  _69
REMARK   31  A    between atoms: _69  and  _70
REMARK   32  A    between atoms: _69  and  _72
REMARK   33  A    between atoms: _72  and  _73
REMARK   34  A    between atoms: _78  and  _80
REMARK   35  A    between atoms: _80  and  _81
REMARK   36  A    between atoms: _84  and  _86
REMARK   37  A    between atoms: _86  and  _87
REMARK   38  A    between atoms: _86  and  _89
REMARK   39  A    between atoms: _89  and  _90
REMARK   40  A    between atoms: _95  and  _97
REMARK   41  A    between atoms: _97  and  _98
REMARK   42  A    between atoms: _97  and  _100
REMARK   43  A    between atoms: _100  and  _101
REMARK   44  A    between atoms: _107  and  _109
REMARK   45  A    between atoms: _109  and  _110
REMARK   46  A    between atoms: _109  and  _112
REMARK   47  A    between atoms: _112  and  _113
REMARK   48  A    between atoms: _116  and  _118
REMARK   49  A    between atoms: _118  and  _119
REMARK   50  A    between atoms: _118  and  _121
REMARK   51  A    between atoms: _121  and  _122
REMARK   52  A    between atoms: _122  and  _123
REMARK   53  A    between atoms: _123  and  _125
REMARK   54  A    between atoms: _125  and  CA_393
REMARK   55  A    between atoms: _126  and  _128
REMARK   56  A    between atoms: _128  and  _129
REMARK   57  A    between atoms: _128  and  _131
REMARK   58  A    between atoms: _131  and  _132
REMARK   59  A    between atoms: _142  and  _144
REMARK   60  A    between atoms: _144  and  _145
REMARK   61  A    between atoms: _144  and  _147
REMARK   62  A    between atoms: _147  and  _148
REMARK   63  A    between atoms: _151  and  _153
REMARK   64  A    between atoms: _153  and  _154
REMARK   65  A    between atoms: _153  and  _156
REMARK   66  A    between atoms: _156  and  _157
REMARK   67  A    between atoms: _162  and  _164
REMARK   68  A    between atoms: _164  and  _165
REMARK   69  A    between atoms: _164  and  _167
REMARK   70  A    between atoms: _167  and  _168
REMARK   71  A    between atoms: _171  and  _173
REMARK   72  A    between atoms: _173  and  _174
REMARK   73  A    between atoms: _173  and  _176
REMARK   74  A    between atoms: _176  and  _177
REMARK   75  A    between atoms: _183  and  _185
REMARK   76  A    between atoms: _185  and  _186
REMARK   77  A    between atoms: _185  and  _188
REMARK   78  A    between atoms: _188  and  _189
REMARK   79  A    between atoms: _192  and  _194
REMARK   80  A    between atoms: _194  and  _195
REMARK   81  A    between atoms: _194  and  _197
REMARK   82  A    between atoms: _197  and  _198
REMARK   83  A    between atoms: _201  and  _203
REMARK   84  A    between atoms: _203  and  _204
REMARK   85  A    between atoms: _207  and  _209
REMARK   86  A    between atoms: _209  and  _210
REMARK   87  A    between atoms: _209  and  _212
REMARK   88  A    between atoms: _215  and  _217
REMARK   89  A    between atoms: _217  and  _218
REMARK   90  A    between atoms: _217  and  _220
REMARK   91  A    between atoms: _220  and  _221
REMARK   92  A    between atoms: _225  and  ZN_392
REMARK   93  A    between atoms: _226  and  _228
REMARK   94  A    between atoms: _228  and  _229
REMARK   95  A    between atoms: _228  and  _231
REMARK   96  A    between atoms: _231  and  _232
REMARK   97  A    between atoms: _232  and  _233
REMARK   98  A    between atoms: _236  and  _238
REMARK   99  A    between atoms: _238  and  _239
REMARK  100  A    between atoms: _238  and  _241
REMARK  101  A    between atoms: _241  and  _242
REMARK  102  A    between atoms: _245  and  _247
REMARK  103  A    between atoms: _247  and  _248
REMARK  104  A    between atoms: _247  and  _250
REMARK  105  A    between atoms: _250  and  _251
REMARK  106  A    between atoms: _255  and  ZN_392
REMARK  107  A    between atoms: _256  and  _258
REMARK  108  A    between atoms: _258  and  _259
REMARK  109  A    between atoms: _258  and  _261
REMARK  110  A    between atoms: _261  and  _262
REMARK  111  A    between atoms: _264  and  _266
REMARK  112  A    between atoms: _266  and  _267
REMARK  113  A    between atoms: _269  and  _271
REMARK  114  A    between atoms: _271  and  _272
REMARK  115  A    between atoms: _271  and  _274
REMARK  116  A    between atoms: _274  and  _275
REMARK  117  A    between atoms: _279  and  ZN_392
REMARK  118  A    between atoms: _280  and  _282
REMARK  119  A    between atoms: _282  and  _283
REMARK  120  A    between atoms: _286  and  _288
REMARK  121  A    between atoms: _288  and  _289
REMARK  122  A    between atoms: _288  and  _291
REMARK  123  A    between atoms: _294  and  _296
REMARK  124  A    between atoms: _296  and  _297
REMARK  125  A    between atoms: _296  and  _299
REMARK  126  A    between atoms: _299  and  _300
REMARK  127  A    between atoms: _300  and  _301
REMARK  128  A    between atoms: _303  and  _305
REMARK  129  A    between atoms: _305  and  _306
REMARK  130  A    between atoms: _305  and  _308
REMARK  131  A    between atoms: _308  and  _309
REMARK  132  A    between atoms: _316  and  _317
REMARK  133  A    between atoms: _322  and  _324
REMARK  134  A    between atoms: _324  and  _325
REMARK  135  A    between atoms: _324  and  _327
REMARK  136  A    between atoms: _327  and  _328
REMARK  137  A    between atoms: _331  and  _333
REMARK  138  A    between atoms: _333  and  _334
REMARK  139  A    between atoms: _333  and  _336
REMARK  140  A    between atoms: _336  and  _337
REMARK  141  A    between atoms: _342  and  _343
REMARK  142  A    between atoms: _345  and  _347
REMARK  143  A    between atoms: _347  and  _348
REMARK  144  A    between atoms: _347  and  _350
REMARK  145  A    between atoms: _350  and  _351
REMARK  146  A    between atoms: _351  and  _352
REMARK  147  A    between atoms: _352  and  _353
REMARK  148  A    between atoms: _353  and  _354
REMARK  149  A    between atoms: _358  and  _360
REMARK  150  A    between atoms: _360  and  _361
REMARK  151  A    between atoms: _360  and  _363
REMARK  152  A    between atoms: _363  and  _364
REMARK  153  A    between atoms: _369  and  _370
REMARK  154  A    between atoms: _372  and  _374
REMARK  155  A    between atoms: _374  and  _375
REMARK  156  A    between atoms: _374  and  _377
REMARK  157  A    between atoms: _380  and  _382
REMARK  158  A    between atoms: _382  and  _383
REMARK  159  A    between atoms: _382  and  _385
REMARK  160  A    between atoms: _385  and  _386
REMARK                            x       y       z     vdW  Elec       q    Type
REMARK                         _______ _______ _______ _____ _____    ______ ____
ROOT
ATOM      1  O   HOH     1      -6.312  -1.176   1.526  0.00  0.00    +0.000 OA
ENDROOT
TORSDOF 0
REMARK  Name = ../refined-set-2016/3ehy/3ehy_pocket.pdb
REMARK  160 active torsions:
REMARK  status: ('A' for Active; 'I' for Inactive)
REMARK    1  A    between atoms: _1  and  _3
REMARK    2  A    between atoms: _3  and  _4
REMARK    3  A    between atoms: _3  and  _6
REMARK    4  A    between atoms: _6  and  _7
REMARK    5  A    between atoms: _12  and  _14
REMARK    6  A    between atoms: _14  and  _15
REMARK    7  A    between atoms: _14  and  _17
REMARK    8  A    between atoms: _17  and  _18
REMARK    9  A    between atoms: _24  and  _26
REMARK   10  A    between atoms: _26  and  _27
REMARK   11  A    between atoms: _26  and  _29
REMARK   12  A    between atoms: _29  and  _30
REMARK   13  A    between atoms: _33  and  _35
REMARK   14  A    between atoms: _35  and  _36
REMARK   15  A    between atoms: _38  and  _40
REMARK   16  A    between atoms: _40  and  _41
REMARK   17  A    between atoms: _43  and  _45
REMARK   18  A    between atoms: _45  and  _46
REMARK   19  A    between atoms: _45  and  _48
REMARK   20  A    between atoms: _46  and  _47
REMARK   21  A    between atoms: _46  and  _52
REMARK   22  A    between atoms: _47  and  CA_393
REMARK   23  A    between atoms: _48  and  _49
REMARK   24  A    between atoms: _52  and  _54
REMARK   25  A    between atoms: _54  and  _55
REMARK   26  A    between atoms: _54  and  _57
REMARK   27  A    between atoms: _57  and  _58
REMARK   28  A    between atoms: _61  and  _63
REMARK   29  A    between atoms: _63  and  _64
REMARK   30  A    between atoms: _67  and  _69
REMARK   31  A    between atoms: _69  and  _70
REMARK   32  A    between atoms: _69  and  _72
REMARK   33  A    between atoms: _72  and  _73
REMARK   34  A    between atoms: _78  and  _80
REMARK   35  A    between atoms: _80  and  _81
REMARK   36  A    between atoms: _84  and  _86
REMARK   37  A    between atoms: _86  and  _87
REMARK   38  A    between atoms: _86  and  _89
REMARK   39  A    between atoms: _89  and  _90
REMARK   40  A    between atoms: _95  and  _97
REMARK   41  A    between atoms: _97  and  _98
REMARK   42  A    between atoms: _97  and  _100
REMARK   43  A    between atoms: _100  and  _101
REMARK   44  A    between atoms: _107  and  _109
REMARK   45  A    between atoms: _109  and  _110
REMARK   46  A    between atoms: _109  and  _112
REMARK   47  A    between atoms: _112  and  _113
REMARK   48  A    between atoms: _116  and  _118
REMARK   49  A    between atoms: _118  and  _119
REMARK   50  A    between atoms: _118  and  _121
REMARK   51  A    between atoms: _121  and  _122
REMARK   52  A    between atoms: _122  and  _123
REMARK   53  A    between atoms: _123  and  _125
REMARK   54  A    between atoms: _125  and  CA_393
REMARK   55  A    between atoms: _126  and  _128
REMARK   56  A    between atoms: _128  and  _129
REMARK   57  A    between atoms: _128  and  _131
REMARK   58  A    between atoms: _131  and  _132
REMARK   59  A    between atoms: _142  and  _144
REMARK   60  A    between atoms: _144  and  _145
REMARK   61  A    between atoms: _144  and  _147
REMARK   62  A    between atoms: _147  and  _148
REMARK   63  A    between atoms: _151  and  _153
REMARK   64  A    between atoms: _153  and  _154
REMARK   65  A    between atoms: _153  and  _156
REMARK   66  A    between atoms: _156  and  _157
REMARK   67  A    between atoms: _162  and  _164
REMARK   68  A    between atoms: _164  and  _165
REMARK   69  A    between atoms: _164  and  _167
REMARK   70  A    between atoms: _167  and  _168
REMARK   71  A    between atoms: _171  and  _173
REMARK   72  A    between atoms: _173  and  _174
REMARK   73  A    between atoms: _173  and  _176
REMARK   74  A    between atoms: _176  and  _177
REMARK   75  A    between atoms: _183  and  _185
REMARK   76  A    between atoms: _185  and  _186
REMARK   77  A    between atoms: _185  and  _188
REMARK   78  A    between atoms: _188  and  _189
REMARK   79  A    between atoms: _192  and  _194
REMARK   80  A    between atoms: _194  and  _195
REMARK   81  A    between atoms: _194  and  _197
REMARK   82  A    between atoms: _197  and  _198
REMARK   83  A    between atoms: _201  and  _203
REMARK   84  A    between atoms: _203  and  _204
REMARK   85  A    between atoms: _207  and  _209
REMARK   86  A    between atoms: _209  and  _210
REMARK   87  A    between atoms: _209  and  _212
REMARK   88  A    between atoms: _215  and  _217
REMARK   89  A    between atoms: _217  and  _218
REMARK   90  A    between atoms: _217  and  _220
REMARK   91  A    between atoms: _220  and  _221
REMARK   92  A    between atoms: _225  and  ZN_392
REMARK   93  A    between atoms: _226  and  _228
REMARK   94  A    between atoms: _228  and  _229
REMARK   95  A    between atoms: _228  and  _231
REMARK   96  A    between atoms: _231  and  _232
REMARK   97  A    between atoms: _232  and  _233
REMARK   98  A    between atoms: _236  and  _238
REMARK   99  A    between atoms: _238  and  _239
REMARK  100  A    between atoms: _238  and  _241
REMARK  101  A    between atoms: _241  and  _242
REMARK  102  A    between atoms: _245  and  _247
REMARK  103  A    between atoms: _247  and  _248
REMARK  104  A    between atoms: _247  and  _250
REMARK  105  A    between atoms: _250  and  _251
REMARK  106  A    between atoms: _255  and  ZN_392
REMARK  107  A    between atoms: _256  and  _258
REMARK  108  A    between atoms: _258  and  _259
REMARK  109  A    between atoms: _258  and  _261
REMARK  110  A    between atoms: _261  and  _262
REMARK  111  A    between atoms: _264  and  _266
REMARK  112  A    between atoms: _266  and  _267
REMARK  113  A    between atoms: _269  and  _271
REMARK  114  A    between atoms: _271  and  _272
REMARK  115  A    between atoms: _271  and  _274
REMARK  116  A    between atoms: _274  and  _275
REMARK  117  A    between atoms: _279  and  ZN_392
REMARK  118  A    between atoms: _280  and  _282
REMARK  119  A    between atoms: _282  and  _283
REMARK  120  A    between atoms: _286  and  _288
REMARK  121  A    between atoms: _288  and  _289
REMARK  122  A    between atoms: _288  and  _291
REMARK  123  A    between atoms: _294  and  _296
REMARK  124  A    between atoms: _296  and  _297
REMARK  125  A    between atoms: _296  and  _299
REMARK  126  A    between atoms: _299  and  _300
REMARK  127  A    between atoms: _300  and  _301
REMARK  128  A    between atoms: _303  and  _305
REMARK  129  A    between atoms: _305  and  _306
REMARK  130  A    between atoms: _305  and  _308
REMARK  131  A    between atoms: _308  and  _309
REMARK  132  A    between atoms: _316  and  _317
REMARK  133  A    between atoms: _322  and  _324
REMARK  134  A    between atoms: _324  and  _325
REMARK  135  A    between atoms: _324  and  _327
REMARK  136  A    between atoms: _327  and  _328
REMARK  137  A    between atoms: _331  and  _333
REMARK  138  A    between atoms: _333  and  _334
REMARK  139  A    between atoms: _333  and  _336
REMARK  140  A    between atoms: _336  and  _337
REMARK  141  A    between atoms: _342  and  _343
REMARK  142  A    between atoms: _345  and  _347
REMARK  143  A    between atoms: _347  and  _348
REMARK  144  A    between atoms: _347  and  _350
REMARK  145  A    between atoms: _350  and  _351
REMARK  146  A    between atoms: _351  and  _352
REMARK  147  A    between atoms: _352  and  _353
REMARK  148  A    between atoms: _353  and  _354
REMARK  149  A    between atoms: _358  and  _360
REMARK  150  A    between atoms: _360  and  _361
REMARK  151  A    between atoms: _360  and  _363
REMARK  152  A    between atoms: _363  and  _364
REMARK  153  A    between atoms: _369  and  _370
REMARK  154  A    between atoms: _372  and  _374
REMARK  155  A    between atoms: _374  and  _375
REMARK  156  A    between atoms: _374  and  _377
REMARK  157  A    between atoms: _380  and  _382
REMARK  158  A    between atoms: _382  and  _383
REMARK  159  A    between atoms: _382  and  _385
REMARK  160  A    between atoms: _385  and  _386
REMARK                            x       y       z     vdW  Elec       q    Type
REMARK                         _______ _______ _______ _____ _____    ______ ____
ROOT
ATOM      1  O   HOH     1      -3.618  -0.719   2.333  0.00  0.00    +0.000 OA
ENDROOT
TORSDOF 0
REMARK  Name = ../refined-set-2016/3ehy/3ehy_pocket.pdb
REMARK  160 active torsions:
REMARK  status: ('A' for Active; 'I' for Inactive)
REMARK    1  A    between atoms: _1  and  _3
REMARK    2  A    between atoms: _3  and  _4
REMARK    3  A    between atoms: _3  and  _6
REMARK    4  A    between atoms: _6  and  _7
REMARK    5  A    between atoms: _12  and  _14
REMARK    6  A    between atoms: _14  and  _15
REMARK    7  A    between atoms: _14  and  _17
REMARK    8  A    between atoms: _17  and  _18
REMARK    9  A    between atoms: _24  and  _26
REMARK   10  A    between atoms: _26  and  _27
REMARK   11  A    between atoms: _26  and  _29
REMARK   12  A    between atoms: _29  and  _30
REMARK   13  A    between atoms: _33  and  _35
REMARK   14  A    between atoms: _35  and  _36
REMARK   15  A    between atoms: _38  and  _40
REMARK   16  A    between atoms: _40  and  _41
REMARK   17  A    between atoms: _43  and  _45
REMARK   18  A    between atoms: _45  and  _46
REMARK   19  A    between atoms: _45  and  _48
REMARK   20  A    between atoms: _46  and  _47
REMARK   21  A    between atoms: _46  and  _52
REMARK   22  A    between atoms: _47  and  CA_393
REMARK   23  A    between atoms: _48  and  _49
REMARK   24  A    between atoms: _52  and  _54
REMARK   25  A    between atoms: _54  and  _55
REMARK   26  A    between atoms: _54  and  _57
REMARK   27  A    between atoms: _57  and  _58
REMARK   28  A    between atoms: _61  and  _63
REMARK   29  A    between atoms: _63  and  _64
REMARK   30  A    between atoms: _67  and  _69
REMARK   31  A    between atoms: _69  and  _70
REMARK   32  A    between atoms: _69  and  _72
REMARK   33  A    between atoms: _72  and  _73
REMARK   34  A    between atoms: _78  and  _80
REMARK   35  A    between atoms: _80  and  _81
REMARK   36  A    between atoms: _84  and  _86
REMARK   37  A    between atoms: _86  and  _87
REMARK   38  A    between atoms: _86  and  _89
REMARK   39  A    between atoms: _89  and  _90
REMARK   40  A    between atoms: _95  and  _97
REMARK   41  A    between atoms: _97  and  _98
REMARK   42  A    between atoms: _97  and  _100
REMARK   43  A    between atoms: _100  and  _101
REMARK   44  A    between atoms: _107  and  _109
REMARK   45  A    between atoms: _109  and  _110
REMARK   46  A    between atoms: _109  and  _112
REMARK   47  A    between atoms: _112  and  _113
REMARK   48  A    between atoms: _116  and  _118
REMARK   49  A    between atoms: _118  and  _119
REMARK   50  A    between atoms: _118  and  _121
REMARK   51  A    between atoms: _121  and  _122
REMARK   52  A    between atoms: _122  and  _123
REMARK   53  A    between atoms: _123  and  _125
REMARK   54  A    between atoms: _125  and  CA_393
REMARK   55  A    between atoms: _126  and  _128
REMARK   56  A    between atoms: _128  and  _129
REMARK   57  A    between atoms: _128  and  _131
REMARK   58  A    between atoms: _131  and  _132
REMARK   59  A    between atoms: _142  and  _144
REMARK   60  A    between atoms: _144  and  _145
REMARK   61  A    between atoms: _144  and  _147
REMARK   62  A    between atoms: _147  and  _148
REMARK   63  A    between atoms: _151  and  _153
REMARK   64  A    between atoms: _153  and  _154
REMARK   65  A    between atoms: _153  and  _156
REMARK   66  A    between atoms: _156  and  _157
REMARK   67  A    between atoms: _162  and  _164
REMARK   68  A    between atoms: _164  and  _165
REMARK   69  A    between atoms: _164  and  _167
REMARK   70  A    between atoms: _167  and  _168
REMARK   71  A    between atoms: _171  and  _173
REMARK   72  A    between atoms: _173  and  _174
REMARK   73  A    between atoms: _173  and  _176
REMARK   74  A    between atoms: _176  and  _177
REMARK   75  A    between atoms: _183  and  _185
REMARK   76  A    between atoms: _185  and  _186
REMARK   77  A    between atoms: _185  and  _188
REMARK   78  A    between atoms: _188  and  _189
REMARK   79  A    between atoms: _192  and  _194
REMARK   80  A    between atoms: _194  and  _195
REMARK   81  A    between atoms: _194  and  _197
REMARK   82  A    between atoms: _197  and  _198
REMARK   83  A    between atoms: _201  and  _203
REMARK   84  A    between atoms: _203  and  _204
REMARK   85  A    between atoms: _207  and  _209
REMARK   86  A    between atoms: _209  and  _210
REMARK   87  A    between atoms: _209  and  _212
REMARK   88  A    between atoms: _215  and  _217
REMARK   89  A    between atoms: _217  and  _218
REMARK   90  A    between atoms: _217  and  _220
REMARK   91  A    between atoms: _220  and  _221
REMARK   92  A    between atoms: _225  and  ZN_392
REMARK   93  A    between atoms: _226  and  _228
REMARK   94  A    between atoms: _228  and  _229
REMARK   95  A    between atoms: _228  and  _231
REMARK   96  A    between atoms: _231  and  _232
REMARK   97  A    between atoms: _232  and  _233
REMARK   98  A    between atoms: _236  and  _238
REMARK   99  A    between atoms: _238  and  _239
REMARK  100  A    between atoms: _238  and  _241
REMARK  101  A    between atoms: _241  and  _242
REMARK  102  A    between atoms: _245  and  _247
REMARK  103  A    between atoms: _247  and  _248
REMARK  104  A    between atoms: _247  and  _250
REMARK  105  A    between atoms: _250  and  _251
REMARK  106  A    between atoms: _255  and  ZN_392
REMARK  107  A    between atoms: _256  and  _258
REMARK  108  A    between atoms: _258  and  _259
REMARK  109  A    between atoms: _258  and  _261
REMARK  110  A    between atoms: _261  and  _262
REMARK  111  A    between atoms: _264  and  _266
REMARK  112  A    between atoms: _266  and  _267
REMARK  113  A    between atoms: _269  and  _271
REMARK  114  A    between atoms: _271  and  _272
REMARK  115  A    between atoms: _271  and  _274
REMARK  116  A    between atoms: _274  and  _275
REMARK  117  A    between atoms: _279  and  ZN_392
REMARK  118  A    between atoms: _280  and  _282
REMARK  119  A    between atoms: _282  and  _283
REMARK  120  A    between atoms: _286  and  _288
REMARK  121  A    between atoms: _288  and  _289
REMARK  122  A    between atoms: _288  and  _291
REMARK  123  A    between atoms: _294  and  _296
REMARK  124  A    between atoms: _296  and  _297
REMARK  125  A    between atoms: _296  and  _299
REMARK  126  A    between atoms: _299  and  _300
REMARK  127  A    between atoms: _300  and  _301
REMARK  128  A    between atoms: _303  and  _305
REMARK  129  A    between atoms: _305  and  _306
REMARK  130  A    between atoms: _305  and  _308
REMARK  131  A    between atoms: _308  and  _309
REMARK  132  A    between atoms: _316  and  _317
REMARK  133  A    between atoms: _322  and  _324
REMARK  134  A    between atoms: _324  and  _325
REMARK  135  A    between atoms: _324  and  _327
REMARK  136  A    between atoms: _327  and  _328
REMARK  137  A    between atoms: _331  and  _333
REMARK  138  A    between atoms: _333  and  _334
REMARK  139  A    between atoms: _333  and  _336
REMARK  140  A    between atoms: _336  and  _337
REMARK  141  A    between atoms: _342  and  _343
REMARK  142  A    between atoms: _345  and  _347
REMARK  143  A    between atoms: _347  and  _348
REMARK  144  A    between atoms: _347  and  _350
REMARK  145  A    between atoms: _350  and  _351
REMARK  146  A    between atoms: _351  and  _352
REMARK  147  A    between atoms: _352  and  _353
REMARK  148  A    between atoms: _353  and  _354
REMARK  149  A    between atoms: _358  and  _360
REMARK  150  A    between atoms: _360  and  _361
REMARK  151  A    between atoms: _360  and  _363
REMARK  152  A    between atoms: _363  and  _364
REMARK  153  A    between atoms: _369  and  _370
REMARK  154  A    between atoms: _372  and  _374
REMARK  155  A    between atoms: _374  and  _375
REMARK  156  A    between atoms: _374  and  _377
REMARK  157  A    between atoms: _380  and  _382
REMARK  158  A    between atoms: _382  and  _383
REMARK  159  A    between atoms: _382  and  _385
REMARK  160  A    between atoms: _385  and  _386
REMARK                            x       y       z     vdW  Elec       q    Type
REMARK                         _______ _______ _______ _____ _____    ______ ____
ROOT
ATOM      1  O   HOH     1       0.196 -10.986  -4.516  0.00  0.00    +0.000 OA
ENDROOT
TORSDOF 0
REMARK  Name = ../refined-set-2016/3ehy/3ehy_pocket.pdb
REMARK  160 active torsions:
REMARK  status: ('A' for Active; 'I' for Inactive)
REMARK    1  A    between atoms: _1  and  _3
REMARK    2  A    between atoms: _3  and  _4
REMARK    3  A    between atoms: _3  and  _6
REMARK    4  A    between atoms: _6  and  _7
REMARK    5  A    between atoms: _12  and  _14
REMARK    6  A    between atoms: _14  and  _15
REMARK    7  A    between atoms: _14  and  _17
REMARK    8  A    between atoms: _17  and  _18
REMARK    9  A    between atoms: _24  and  _26
REMARK   10  A    between atoms: _26  and  _27
REMARK   11  A    between atoms: _26  and  _29
REMARK   12  A    between atoms: _29  and  _30
REMARK   13  A    between atoms: _33  and  _35
REMARK   14  A    between atoms: _35  and  _36
REMARK   15  A    between atoms: _38  and  _40
REMARK   16  A    between atoms: _40  and  _41
REMARK   17  A    between atoms: _43  and  _45
REMARK   18  A    between atoms: _45  and  _46
REMARK   19  A    between atoms: _45  and  _48
REMARK   20  A    between atoms: _46  and  _47
REMARK   21  A    between atoms: _46  and  _52
REMARK   22  A    between atoms: _47  and  CA_393
REMARK   23  A    between atoms: _48  and  _49
REMARK   24  A    between atoms: _52  and  _54
REMARK   25  A    between atoms: _54  and  _55
REMARK   26  A    between atoms: _54  and  _57
REMARK   27  A    between atoms: _57  and  _58
REMARK   28  A    between atoms: _61  and  _63
REMARK   29  A    between atoms: _63  and  _64
REMARK   30  A    between atoms: _67  and  _69
REMARK   31  A    between atoms: _69  and  _70
REMARK   32  A    between atoms: _69  and  _72
REMARK   33  A    between atoms: _72  and  _73
REMARK   34  A    between atoms: _78  and  _80
REMARK   35  A    between atoms: _80  and  _81
REMARK   36  A    between atoms: _84  and  _86
REMARK   37  A    between atoms: _86  and  _87
REMARK   38  A    between atoms: _86  and  _89
REMARK   39  A    between atoms: _89  and  _90
REMARK   40  A    between atoms: _95  and  _97
REMARK   41  A    between atoms: _97  and  _98
REMARK   42  A    between atoms: _97  and  _100
REMARK   43  A    between atoms: _100  and  _101
REMARK   44  A    between atoms: _107  and  _109
REMARK   45  A    between atoms: _109  and  _110
REMARK   46  A    between atoms: _109  and  _112
REMARK   47  A    between atoms: _112  and  _113
REMARK   48  A    between atoms: _116  and  _118
REMARK   49  A    between atoms: _118  and  _119
REMARK   50  A    between atoms: _118  and  _121
REMARK   51  A    between atoms: _121  and  _122
REMARK   52  A    between atoms: _122  and  _123
REMARK   53  A    between atoms: _123  and  _125
REMARK   54  A    between atoms: _125  and  CA_393
REMARK   55  A    between atoms: _126  and  _128
REMARK   56  A    between atoms: _128  and  _129
REMARK   57  A    between atoms: _128  and  _131
REMARK   58  A    between atoms: _131  and  _132
REMARK   59  A    between atoms: _142  and  _144
REMARK   60  A    between atoms: _144  and  _145
REMARK   61  A    between atoms: _144  and  _147
REMARK   62  A    between atoms: _147  and  _148
REMARK   63  A    between atoms: _151  and  _153
REMARK   64  A    between atoms: _153  and  _154
REMARK   65  A    between atoms: _153  and  _156
REMARK   66  A    between atoms: _156  and  _157
REMARK   67  A    between atoms: _162  and  _164
REMARK   68  A    between atoms: _164  and  _165
REMARK   69  A    between atoms: _164  and  _167
REMARK   70  A    between atoms: _167  and  _168
REMARK   71  A    between atoms: _171  and  _173
REMARK   72  A    between atoms: _173  and  _174
REMARK   73  A    between atoms: _173  and  _176
REMARK   74  A    between atoms: _176  and  _177
REMARK   75  A    between atoms: _183  and  _185
REMARK   76  A    between atoms: _185  and  _186
REMARK   77  A    between atoms: _185  and  _188
REMARK   78  A    between atoms: _188  and  _189
REMARK   79  A    between atoms: _192  and  _194
REMARK   80  A    between atoms: _194  and  _195
REMARK   81  A    between atoms: _194  and  _197
REMARK   82  A    between atoms: _197  and  _198
REMARK   83  A    between atoms: _201  and  _203
REMARK   84  A    between atoms: _203  and  _204
REMARK   85  A    between atoms: _207  and  _209
REMARK   86  A    between atoms: _209  and  _210
REMARK   87  A    between atoms: _209  and  _212
REMARK   88  A    between atoms: _215  and  _217
REMARK   89  A    between atoms: _217  and  _218
REMARK   90  A    between atoms: _217  and  _220
REMARK   91  A    between atoms: _220  and  _221
REMARK   92  A    between atoms: _225  and  ZN_392
REMARK   93  A    between atoms: _226  and  _228
REMARK   94  A    between atoms: _228  and  _229
REMARK   95  A    between atoms: _228  and  _231
REMARK   96  A    between atoms: _231  and  _232
REMARK   97  A    between atoms: _232  and  _233
REMARK   98  A    between atoms: _236  and  _238
REMARK   99  A    between atoms: _238  and  _239
REMARK  100  A    between atoms: _238  and  _241
REMARK  101  A    between atoms: _241  and  _242
REMARK  102  A    between atoms: _245  and  _247
REMARK  103  A    between atoms: _247  and  _248
REMARK  104  A    between atoms: _247  and  _250
REMARK  105  A    between atoms: _250  and  _251
REMARK  106  A    between atoms: _255  and  ZN_392
REMARK  107  A    between atoms: _256  and  _258
REMARK  108  A    between atoms: _258  and  _259
REMARK  109  A    between atoms: _258  and  _261
REMARK  110  A    between atoms: _261  and  _262
REMARK  111  A    between atoms: _264  and  _266
REMARK  112  A    between atoms: _266  and  _267
REMARK  113  A    between atoms: _269  and  _271
REMARK  114  A    between atoms: _271  and  _272
REMARK  115  A    between atoms: _271  and  _274
REMARK  116  A    between atoms: _274  and  _275
REMARK  117  A    between atoms: _279  and  ZN_392
REMARK  118  A    between atoms: _280  and  _282
REMARK  119  A    between atoms: _282  and  _283
REMARK  120  A    between atoms: _286  and  _288
REMARK  121  A    between atoms: _288  and  _289
REMARK  122  A    between atoms: _288  and  _291
REMARK  123  A    between atoms: _294  and  _296
REMARK  124  A    between atoms: _296  and  _297
REMARK  125  A    between atoms: _296  and  _299
REMARK  126  A    between atoms: _299  and  _300
REMARK  127  A    between atoms: _300  and  _301
REMARK  128  A    between atoms: _303  and  _305
REMARK  129  A    between atoms: _305  and  _306
REMARK  130  A    between atoms: _305  and  _308
REMARK  131  A    between atoms: _308  and  _309
REMARK  132  A    between atoms: _316  and  _317
REMARK  133  A    between atoms: _322  and  _324
REMARK  134  A    between atoms: _324  and  _325
REMARK  135  A    between atoms: _324  and  _327
REMARK  136  A    between atoms: _327  and  _328
REMARK  137  A    between atoms: _331  and  _333
REMARK  138  A    between atoms: _333  and  _334
REMARK  139  A    between atoms: _333  and  _336
REMARK  140  A    between atoms: _336  and  _337
REMARK  141  A    between atoms: _342  and  _343
REMARK  142  A    between atoms: _345  and  _347
REMARK  143  A    between atoms: _347  and  _348
REMARK  144  A    between atoms: _347  and  _350
REMARK  145  A    between atoms: _350  and  _351
REMARK  146  A    between atoms: _351  and  _352
REMARK  147  A    between atoms: _352  and  _353
REMARK  148  A    between atoms: _353  and  _354
REMARK  149  A    between atoms: _358  and  _360
REMARK  150  A    between atoms: _360  and  _361
REMARK  151  A    between atoms: _360  and  _363
REMARK  152  A    between atoms: _363  and  _364
REMARK  153  A    between atoms: _369  and  _370
REMARK  154  A    between atoms: _372  and  _374
REMARK  155  A    between atoms: _374  and  _375
REMARK  156  A    between atoms: _374  and  _377
REMARK  157  A    between atoms: _380  and  _382
REMARK  158  A    between atoms: _382  and  _383
REMARK  159  A    between atoms: _382  and  _385
REMARK  160  A    between atoms: _385  and  _386
REMARK                            x       y       z     vdW  Elec       q    Type
REMARK                         _______ _______ _______ _____ _____    ______ ____
ROOT
ATOM      1  O   HOH     1      -0.887 -12.902  -6.869  0.00  0.00    +0.000 OA
ENDROOT
TORSDOF 0
REMARK  Name = ../refined-set-2016/3ehy/3ehy_pocket.pdb
REMARK  160 active torsions:
REMARK  status: ('A' for Active; 'I' for Inactive)
REMARK    1  A    between atoms: _1  and  _3
REMARK    2  A    between atoms: _3  and  _4
REMARK    3  A    between atoms: _3  and  _6
REMARK    4  A    between atoms: _6  and  _7
REMARK    5  A    between atoms: _12  and  _14
REMARK    6  A    between atoms: _14  and  _15
REMARK    7  A    between atoms: _14  and  _17
REMARK    8  A    between atoms: _17  and  _18
REMARK    9  A    between atoms: _24  and  _26
REMARK   10  A    between atoms: _26  and  _27
REMARK   11  A    between atoms: _26  and  _29
REMARK   12  A    between atoms: _29  and  _30
REMARK   13  A    between atoms: _33  and  _35
REMARK   14  A    between atoms: _35  and  _36
REMARK   15  A    between atoms: _38  and  _40
REMARK   16  A    between atoms: _40  and  _41
REMARK   17  A    between atoms: _43  and  _45
REMARK   18  A    between atoms: _45  and  _46
REMARK   19  A    between atoms: _45  and  _48
REMARK   20  A    between atoms: _46  and  _47
REMARK   21  A    between atoms: _46  and  _52
REMARK   22  A    between atoms: _47  and  CA_393
REMARK   23  A    between atoms: _48  and  _49
REMARK   24  A    between atoms: _52  and  _54
REMARK   25  A    between atoms: _54  and  _55
REMARK   26  A    between atoms: _54  and  _57
REMARK   27  A    between atoms: _57  and  _58
REMARK   28  A    between atoms: _61  and  _63
REMARK   29  A    between atoms: _63  and  _64
REMARK   30  A    between atoms: _67  and  _69
REMARK   31  A    between atoms: _69  and  _70
REMARK   32  A    between atoms: _69  and  _72
REMARK   33  A    between atoms: _72  and  _73
REMARK   34  A    between atoms: _78  and  _80
REMARK   35  A    between atoms: _80  and  _81
REMARK   36  A    between atoms: _84  and  _86
REMARK   37  A    between atoms: _86  and  _87
REMARK   38  A    between atoms: _86  and  _89
REMARK   39  A    between atoms: _89  and  _90
REMARK   40  A    between atoms: _95  and  _97
REMARK   41  A    between atoms: _97  and  _98
REMARK   42  A    between atoms: _97  and  _100
REMARK   43  A    between atoms: _100  and  _101
REMARK   44  A    between atoms: _107  and  _109
REMARK   45  A    between atoms: _109  and  _110
REMARK   46  A    between atoms: _109  and  _112
REMARK   47  A    between atoms: _112  and  _113
REMARK   48  A    between atoms: _116  and  _118
REMARK   49  A    between atoms: _118  and  _119
REMARK   50  A    between atoms: _118  and  _121
REMARK   51  A    between atoms: _121  and  _122
REMARK   52  A    between atoms: _122  and  _123
REMARK   53  A    between atoms: _123  and  _125
REMARK   54  A    between atoms: _125  and  CA_393
REMARK   55  A    between atoms: _126  and  _128
REMARK   56  A    between atoms: _128  and  _129
REMARK   57  A    between atoms: _128  and  _131
REMARK   58  A    between atoms: _131  and  _132
REMARK   59  A    between atoms: _142  and  _144
REMARK   60  A    between atoms: _144  and  _145
REMARK   61  A    between atoms: _144  and  _147
REMARK   62  A    between atoms: _147  and  _148
REMARK   63  A    between atoms: _151  and  _153
REMARK   64  A    between atoms: _153  and  _154
REMARK   65  A    between atoms: _153  and  _156
REMARK   66  A    between atoms: _156  and  _157
REMARK   67  A    between atoms: _162  and  _164
REMARK   68  A    between atoms: _164  and  _165
REMARK   69  A    between atoms: _164  and  _167
REMARK   70  A    between atoms: _167  and  _168
REMARK   71  A    between atoms: _171  and  _173
REMARK   72  A    between atoms: _173  and  _174
REMARK   73  A    between atoms: _173  and  _176
REMARK   74  A    between atoms: _176  and  _177
REMARK   75  A    between atoms: _183  and  _185
REMARK   76  A    between atoms: _185  and  _186
REMARK   77  A    between atoms: _185  and  _188
REMARK   78  A    between atoms: _188  and  _189
REMARK   79  A    between atoms: _192  and  _194
REMARK   80  A    between atoms: _194  and  _195
REMARK   81  A    between atoms: _194  and  _197
REMARK   82  A    between atoms: _197  and  _198
REMARK   83  A    between atoms: _201  and  _203
REMARK   84  A    between atoms: _203  and  _204
REMARK   85  A    between atoms: _207  and  _209
REMARK   86  A    between atoms: _209  and  _210
REMARK   87  A    between atoms: _209  and  _212
REMARK   88  A    between atoms: _215  and  _217
REMARK   89  A    between atoms: _217  and  _218
REMARK   90  A    between atoms: _217  and  _220
REMARK   91  A    between atoms: _220  and  _221
REMARK   92  A    between atoms: _225  and  ZN_392
REMARK   93  A    between atoms: _226  and  _228
REMARK   94  A    between atoms: _228  and  _229
REMARK   95  A    between atoms: _228  and  _231
REMARK   96  A    between atoms: _231  and  _232
REMARK   97  A    between atoms: _232  and  _233
REMARK   98  A    between atoms: _236  and  _238
REMARK   99  A    between atoms: _238  and  _239
REMARK  100  A    between atoms: _238  and  _241
REMARK  101  A    between atoms: _241  and  _242
REMARK  102  A    between atoms: _245  and  _247
REMARK  103  A    between atoms: _247  and  _248
REMARK  104  A    between atoms: _247  and  _250
REMARK  105  A    between atoms: _250  and  _251
REMARK  106  A    between atoms: _255  and  ZN_392
REMARK  107  A    between atoms: _256  and  _258
REMARK  108  A    between atoms: _258  and  _259
REMARK  109  A    between atoms: _258  and  _261
REMARK  110  A    between atoms: _261  and  _262
REMARK  111  A    between atoms: _264  and  _266
REMARK  112  A    between atoms: _266  and  _267
REMARK  113  A    between atoms: _269  and  _271
REMARK  114  A    between atoms: _271  and  _272
REMARK  115  A    between atoms: _271  and  _274
REMARK  116  A    between atoms: _274  and  _275
REMARK  117  A    between atoms: _279  and  ZN_392
REMARK  118  A    between atoms: _280  and  _282
REMARK  119  A    between atoms: _282  and  _283
REMARK  120  A    between atoms: _286  and  _288
REMARK  121  A    between atoms: _288  and  _289
REMARK  122  A    between atoms: _288  and  _291
REMARK  123  A    between atoms: _294  and  _296
REMARK  124  A    between atoms: _296  and  _297
REMARK  125  A    between atoms: _296  and  _299
REMARK  126  A    between atoms: _299  and  _300
REMARK  127  A    between atoms: _300  and  _301
REMARK  128  A    between atoms: _303  and  _305
REMARK  129  A    between atoms: _305  and  _306
REMARK  130  A    between atoms: _305  and  _308
REMARK  131  A    between atoms: _308  and  _309
REMARK  132  A    between atoms: _316  and  _317
REMARK  133  A    between atoms: _322  and  _324
REMARK  134  A    between atoms: _324  and  _325
REMARK  135  A    between atoms: _324  and  _327
REMARK  136  A    between atoms: _327  and  _328
REMARK  137  A    between atoms: _331  and  _333
REMARK  138  A    between atoms: _333  and  _334
REMARK  139  A    between atoms: _333  and  _336
REMARK  140  A    between atoms: _336  and  _337
REMARK  141  A    between atoms: _342  and  _343
REMARK  142  A    between atoms: _345  and  _347
REMARK  143  A    between atoms: _347  and  _348
REMARK  144  A    between atoms: _347  and  _350
REMARK  145  A    between atoms: _350  and  _351
REMARK  146  A    between atoms: _351  and  _352
REMARK  147  A    between atoms: _352  and  _353
REMARK  148  A    between atoms: _353  and  _354
REMARK  149  A    between atoms: _358  and  _360
REMARK  150  A    between atoms: _360  and  _361
REMARK  151  A    between atoms: _360  and  _363
REMARK  152  A    between atoms: _363  and  _364
REMARK  153  A    between atoms: _369  and  _370
REMARK  154  A    between atoms: _372  and  _374
REMARK  155  A    between atoms: _374  and  _375
REMARK  156  A    between atoms: _374  and  _377
REMARK  157  A    between atoms: _380  and  _382
REMARK  158  A    between atoms: _382  and  _383
REMARK  159  A    between atoms: _382  and  _385
REMARK  160  A    between atoms: _385  and  _386
REMARK                            x       y       z     vdW  Elec       q    Type
REMARK                         _______ _______ _______ _____ _____    ______ ____
ROOT
ATOM      1  O   HOH     1      -8.095  -6.976  -6.757  0.00  0.00    +0.000 OA
ENDROOT
TORSDOF 0
REMARK  Name = ../refined-set-2016/3ehy/3ehy_pocket.pdb
REMARK  160 active torsions:
REMARK  status: ('A' for Active; 'I' for Inactive)
REMARK    1  A    between atoms: _1  and  _3
REMARK    2  A    between atoms: _3  and  _4
REMARK    3  A    between atoms: _3  and  _6
REMARK    4  A    between atoms: _6  and  _7
REMARK    5  A    between atoms: _12  and  _14
REMARK    6  A    between atoms: _14  and  _15
REMARK    7  A    between atoms: _14  and  _17
REMARK    8  A    between atoms: _17  and  _18
REMARK    9  A    between atoms: _24  and  _26
REMARK   10  A    between atoms: _26  and  _27
REMARK   11  A    between atoms: _26  and  _29
REMARK   12  A    between atoms: _29  and  _30
REMARK   13  A    between atoms: _33  and  _35
REMARK   14  A    between atoms: _35  and  _36
REMARK   15  A    between atoms: _38  and  _40
REMARK   16  A    between atoms: _40  and  _41
REMARK   17  A    between atoms: _43  and  _45
REMARK   18  A    between atoms: _45  and  _46
REMARK   19  A    between atoms: _45  and  _48
REMARK   20  A    between atoms: _46  and  _47
REMARK   21  A    between atoms: _46  and  _52
REMARK   22  A    between atoms: _47  and  CA_393
REMARK   23  A    between atoms: _48  and  _49
REMARK   24  A    between atoms: _52  and  _54
REMARK   25  A    between atoms: _54  and  _55
REMARK   26  A    between atoms: _54  and  _57
REMARK   27  A    between atoms: _57  and  _58
REMARK   28  A    between atoms: _61  and  _63
REMARK   29  A    between atoms: _63  and  _64
REMARK   30  A    between atoms: _67  and  _69
REMARK   31  A    between atoms: _69  and  _70
REMARK   32  A    between atoms: _69  and  _72
REMARK   33  A    between atoms: _72  and  _73
REMARK   34  A    between atoms: _78  and  _80
REMARK   35  A    between atoms: _80  and  _81
REMARK   36  A    between atoms: _84  and  _86
REMARK   37  A    between atoms: _86  and  _87
REMARK   38  A    between atoms: _86  and  _89
REMARK   39  A    between atoms: _89  and  _90
REMARK   40  A    between atoms: _95  and  _97
REMARK   41  A    between atoms: _97  and  _98
REMARK   42  A    between atoms: _97  and  _100
REMARK   43  A    between atoms: _100  and  _101
REMARK   44  A    between atoms: _107  and  _109
REMARK   45  A    between atoms: _109  and  _110
REMARK   46  A    between atoms: _109  and  _112
REMARK   47  A    between atoms: _112  and  _113
REMARK   48  A    between atoms: _116  and  _118
REMARK   49  A    between atoms: _118  and  _119
REMARK   50  A    between atoms: _118  and  _121
REMARK   51  A    between atoms: _121  and  _122
REMARK   52  A    between atoms: _122  and  _123
REMARK   53  A    between atoms: _123  and  _125
REMARK   54  A    between atoms: _125  and  CA_393
REMARK   55  A    between atoms: _126  and  _128
REMARK   56  A    between atoms: _128  and  _129
REMARK   57  A    between atoms: _128  and  _131
REMARK   58  A    between atoms: _131  and  _132
REMARK   59  A    between atoms: _142  and  _144
REMARK   60  A    between atoms: _144  and  _145
REMARK   61  A    between atoms: _144  and  _147
REMARK   62  A    between atoms: _147  and  _148
REMARK   63  A    between atoms: _151  and  _153
REMARK   64  A    between atoms: _153  and  _154
REMARK   65  A    between atoms: _153  and  _156
REMARK   66  A    between atoms: _156  and  _157
REMARK   67  A    between atoms: _162  and  _164
REMARK   68  A    between atoms: _164  and  _165
REMARK   69  A    between atoms: _164  and  _167
REMARK   70  A    between atoms: _167  and  _168
REMARK   71  A    between atoms: _171  and  _173
REMARK   72  A    between atoms: _173  and  _174
REMARK   73  A    between atoms: _173  and  _176
REMARK   74  A    between atoms: _176  and  _177
REMARK   75  A    between atoms: _183  and  _185
REMARK   76  A    between atoms: _185  and  _186
REMARK   77  A    between atoms: _185  and  _188
REMARK   78  A    between atoms: _188  and  _189
REMARK   79  A    between atoms: _192  and  _194
REMARK   80  A    between atoms: _194  and  _195
REMARK   81  A    between atoms: _194  and  _197
REMARK   82  A    between atoms: _197  and  _198
REMARK   83  A    between atoms: _201  and  _203
REMARK   84  A    between atoms: _203  and  _204
REMARK   85  A    between atoms: _207  and  _209
REMARK   86  A    between atoms: _209  and  _210
REMARK   87  A    between atoms: _209  and  _212
REMARK   88  A    between atoms: _215  and  _217
REMARK   89  A    between atoms: _217  and  _218
REMARK   90  A    between atoms: _217  and  _220
REMARK   91  A    between atoms: _220  and  _221
REMARK   92  A    between atoms: _225  and  ZN_392
REMARK   93  A    between atoms: _226  and  _228
REMARK   94  A    between atoms: _228  and  _229
REMARK   95  A    between atoms: _228  and  _231
REMARK   96  A    between atoms: _231  and  _232
REMARK   97  A    between atoms: _232  and  _233
REMARK   98  A    between atoms: _236  and  _238
REMARK   99  A    between atoms: _238  and  _239
REMARK  100  A    between atoms: _238  and  _241
REMARK  101  A    between atoms: _241  and  _242
REMARK  102  A    between atoms: _245  and  _247
REMARK  103  A    between atoms: _247  and  _248
REMARK  104  A    between atoms: _247  and  _250
REMARK  105  A    between atoms: _250  and  _251
REMARK  106  A    between atoms: _255  and  ZN_392
REMARK  107  A    between atoms: _256  and  _258
REMARK  108  A    between atoms: _258  and  _259
REMARK  109  A    between atoms: _258  and  _261
REMARK  110  A    between atoms: _261  and  _262
REMARK  111  A    between atoms: _264  and  _266
REMARK  112  A    between atoms: _266  and  _267
REMARK  113  A    between atoms: _269  and  _271
REMARK  114  A    between atoms: _271  and  _272
REMARK  115  A    between atoms: _271  and  _274
REMARK  116  A    between atoms: _274  and  _275
REMARK  117  A    between atoms: _279  and  ZN_392
REMARK  118  A    between atoms: _280  and  _282
REMARK  119  A    between atoms: _282  and  _283
REMARK  120  A    between atoms: _286  and  _288
REMARK  121  A    between atoms: _288  and  _289
REMARK  122  A    between atoms: _288  and  _291
REMARK  123  A    between atoms: _294  and  _296
REMARK  124  A    between atoms: _296  and  _297
REMARK  125  A    between atoms: _296  and  _299
REMARK  126  A    between atoms: _299  and  _300
REMARK  127  A    between atoms: _300  and  _301
REMARK  128  A    between atoms: _303  and  _305
REMARK  129  A    between atoms: _305  and  _306
REMARK  130  A    between atoms: _305  and  _308
REMARK  131  A    between atoms: _308  and  _309
REMARK  132  A    between atoms: _316  and  _317
REMARK  133  A    between atoms: _322  and  _324
REMARK  134  A    between atoms: _324  and  _325
REMARK  135  A    between atoms: _324  and  _327
REMARK  136  A    between atoms: _327  and  _328
REMARK  137  A    between atoms: _331  and  _333
REMARK  138  A    between atoms: _333  and  _334
REMARK  139  A    between atoms: _333  and  _336
REMARK  140  A    between atoms: _336  and  _337
REMARK  141  A    between atoms: _342  and  _343
REMARK  142  A    between atoms: _345  and  _347
REMARK  143  A    between atoms: _347  and  _348
REMARK  144  A    between atoms: _347  and  _350
REMARK  145  A    between atoms: _350  and  _351
REMARK  146  A    between atoms: _351  and  _352
REMARK  147  A    between atoms: _352  and  _353
REMARK  148  A    between atoms: _353  and  _354
REMARK  149  A    between atoms: _358  and  _360
REMARK  150  A    between atoms: _360  and  _361
REMARK  151  A    between atoms: _360  and  _363
REMARK  152  A    between atoms: _363  and  _364
REMARK  153  A    between atoms: _369  and  _370
REMARK  154  A    between atoms: _372  and  _374
REMARK  155  A    between atoms: _374  and  _375
REMARK  156  A    between atoms: _374  and  _377
REMARK  157  A    between atoms: _380  and  _382
REMARK  158  A    between atoms: _382  and  _383
REMARK  159  A    between atoms: _382  and  _385
REMARK  160  A    between atoms: _385  and  _386
REMARK                            x       y       z     vdW  Elec       q    Type
REMARK                         _______ _______ _______ _____ _____    ______ ____
ROOT
ATOM      1  O   HOH     1      -2.596  -4.319  -1.765  0.00  0.00    +0.000 OA
ENDROOT
TORSDOF 0
REMARK  Name = ../refined-set-2016/3ehy/3ehy_pocket.pdb
REMARK  160 active torsions:
REMARK  status: ('A' for Active; 'I' for Inactive)
REMARK    1  A    between atoms: _1  and  _3
REMARK    2  A    between atoms: _3  and  _4
REMARK    3  A    between atoms: _3  and  _6
REMARK    4  A    between atoms: _6  and  _7
REMARK    5  A    between atoms: _12  and  _14
REMARK    6  A    between atoms: _14  and  _15
REMARK    7  A    between atoms: _14  and  _17
REMARK    8  A    between atoms: _17  and  _18
REMARK    9  A    between atoms: _24  and  _26
REMARK   10  A    between atoms: _26  and  _27
REMARK   11  A    between atoms: _26  and  _29
REMARK   12  A    between atoms: _29  and  _30
REMARK   13  A    between atoms: _33  and  _35
REMARK   14  A    between atoms: _35  and  _36
REMARK   15  A    between atoms: _38  and  _40
REMARK   16  A    between atoms: _40  and  _41
REMARK   17  A    between atoms: _43  and  _45
REMARK   18  A    between atoms: _45  and  _46
REMARK   19  A    between atoms: _45  and  _48
REMARK   20  A    between atoms: _46  and  _47
REMARK   21  A    between atoms: _46  and  _52
REMARK   22  A    between atoms: _47  and  CA_393
REMARK   23  A    between atoms: _48  and  _49
REMARK   24  A    between atoms: _52  and  _54
REMARK   25  A    between atoms: _54  and  _55
REMARK   26  A    between atoms: _54  and  _57
REMARK   27  A    between atoms: _57  and  _58
REMARK   28  A    between atoms: _61  and  _63
REMARK   29  A    between atoms: _63  and  _64
REMARK   30  A    between atoms: _67  and  _69
REMARK   31  A    between atoms: _69  and  _70
REMARK   32  A    between atoms: _69  and  _72
REMARK   33  A    between atoms: _72  and  _73
REMARK   34  A    between atoms: _78  and  _80
REMARK   35  A    between atoms: _80  and  _81
REMARK   36  A    between atoms: _84  and  _86
REMARK   37  A    between atoms: _86  and  _87
REMARK   38  A    between atoms: _86  and  _89
REMARK   39  A    between atoms: _89  and  _90
REMARK   40  A    between atoms: _95  and  _97
REMARK   41  A    between atoms: _97  and  _98
REMARK   42  A    between atoms: _97  and  _100
REMARK   43  A    between atoms: _100  and  _101
REMARK   44  A    between atoms: _107  and  _109
REMARK   45  A    between atoms: _109  and  _110
REMARK   46  A    between atoms: _109  and  _112
REMARK   47  A    between atoms: _112  and  _113
REMARK   48  A    between atoms: _116  and  _118
REMARK   49  A    between atoms: _118  and  _119
REMARK   50  A    between atoms: _118  and  _121
REMARK   51  A    between atoms: _121  and  _122
REMARK   52  A    between atoms: _122  and  _123
REMARK   53  A    between atoms: _123  and  _125
REMARK   54  A    between atoms: _125  and  CA_393
REMARK   55  A    between atoms: _126  and  _128
REMARK   56  A    between atoms: _128  and  _129
REMARK   57  A    between atoms: _128  and  _131
REMARK   58  A    between atoms: _131  and  _132
REMARK   59  A    between atoms: _142  and  _144
REMARK   60  A    between atoms: _144  and  _145
REMARK   61  A    between atoms: _144  and  _147
REMARK   62  A    between atoms: _147  and  _148
REMARK   63  A    between atoms: _151  and  _153
REMARK   64  A    between atoms: _153  and  _154
REMARK   65  A    between atoms: _153  and  _156
REMARK   66  A    between atoms: _156  and  _157
REMARK   67  A    between atoms: _162  and  _164
REMARK   68  A    between atoms: _164  and  _165
REMARK   69  A    between atoms: _164  and  _167
REMARK   70  A    between atoms: _167  and  _168
REMARK   71  A    between atoms: _171  and  _173
REMARK   72  A    between atoms: _173  and  _174
REMARK   73  A    between atoms: _173  and  _176
REMARK   74  A    between atoms: _176  and  _177
REMARK   75  A    between atoms: _183  and  _185
REMARK   76  A    between atoms: _185  and  _186
REMARK   77  A    between atoms: _185  and  _188
REMARK   78  A    between atoms: _188  and  _189
REMARK   79  A    between atoms: _192  and  _194
REMARK   80  A    between atoms: _194  and  _195
REMARK   81  A    between atoms: _194  and  _197
REMARK   82  A    between atoms: _197  and  _198
REMARK   83  A    between atoms: _201  and  _203
REMARK   84  A    between atoms: _203  and  _204
REMARK   85  A    between atoms: _207  and  _209
REMARK   86  A    between atoms: _209  and  _210
REMARK   87  A    between atoms: _209  and  _212
REMARK   88  A    between atoms: _215  and  _217
REMARK   89  A    between atoms: _217  and  _218
REMARK   90  A    between atoms: _217  and  _220
REMARK   91  A    between atoms: _220  and  _221
REMARK   92  A    between atoms: _225  and  ZN_392
REMARK   93  A    between atoms: _226  and  _228
REMARK   94  A    between atoms: _228  and  _229
REMARK   95  A    between atoms: _228  and  _231
REMARK   96  A    between atoms: _231  and  _232
REMARK   97  A    between atoms: _232  and  _233
REMARK   98  A    between atoms: _236  and  _238
REMARK   99  A    between atoms: _238  and  _239
REMARK  100  A    between atoms: _238  and  _241
REMARK  101  A    between atoms: _241  and  _242
REMARK  102  A    between atoms: _245  and  _247
REMARK  103  A    between atoms: _247  and  _248
REMARK  104  A    between atoms: _247  and  _250
REMARK  105  A    between atoms: _250  and  _251
REMARK  106  A    between atoms: _255  and  ZN_392
REMARK  107  A    between atoms: _256  and  _258
REMARK  108  A    between atoms: _258  and  _259
REMARK  109  A    between atoms: _258  and  _261
REMARK  110  A    between atoms: _261  and  _262
REMARK  111  A    between atoms: _264  and  _266
REMARK  112  A    between atoms: _266  and  _267
REMARK  113  A    between atoms: _269  and  _271
REMARK  114  A    between atoms: _271  and  _272
REMARK  115  A    between atoms: _271  and  _274
REMARK  116  A    between atoms: _274  and  _275
REMARK  117  A    between atoms: _279  and  ZN_392
REMARK  118  A    between atoms: _280  and  _282
REMARK  119  A    between atoms: _282  and  _283
REMARK  120  A    between atoms: _286  and  _288
REMARK  121  A    between atoms: _288  and  _289
REMARK  122  A    between atoms: _288  and  _291
REMARK  123  A    between atoms: _294  and  _296
REMARK  124  A    between atoms: _296  and  _297
REMARK  125  A    between atoms: _296  and  _299
REMARK  126  A    between atoms: _299  and  _300
REMARK  127  A    between atoms: _300  and  _301
REMARK  128  A    between atoms: _303  and  _305
REMARK  129  A    between atoms: _305  and  _306
REMARK  130  A    between atoms: _305  and  _308
REMARK  131  A    between atoms: _308  and  _309
REMARK  132  A    between atoms: _316  and  _317
REMARK  133  A    between atoms: _322  and  _324
REMARK  134  A    between atoms: _324  and  _325
REMARK  135  A    between atoms: _324  and  _327
REMARK  136  A    between atoms: _327  and  _328
REMARK  137  A    between atoms: _331  and  _333
REMARK  138  A    between atoms: _333  and  _334
REMARK  139  A    between atoms: _333  and  _336
REMARK  140  A    between atoms: _336  and  _337
REMARK  141  A    between atoms: _342  and  _343
REMARK  142  A    between atoms: _345  and  _347
REMARK  143  A    between atoms: _347  and  _348
REMARK  144  A    between atoms: _347  and  _350
REMARK  145  A    between atoms: _350  and  _351
REMARK  146  A    between atoms: _351  and  _352
REMARK  147  A    between atoms: _352  and  _353
REMARK  148  A    between atoms: _353  and  _354
REMARK  149  A    between atoms: _358  and  _360
REMARK  150  A    between atoms: _360  and  _361
REMARK  151  A    between atoms: _360  and  _363
REMARK  152  A    between atoms: _363  and  _364
REMARK  153  A    between atoms: _369  and  _370
REMARK  154  A    between atoms: _372  and  _374
REMARK  155  A    between atoms: _374  and  _375
REMARK  156  A    between atoms: _374  and  _377
REMARK  157  A    between atoms: _380  and  _382
REMARK  158  A    between atoms: _382  and  _383
REMARK  159  A    between atoms: _382  and  _385
REMARK  160  A    between atoms: _385  and  _386
REMARK                            x       y       z     vdW  Elec       q    Type
REMARK                         _______ _______ _______ _____ _____    ______ ____
ROOT
ATOM      1  O   HOH     1     -10.879  -8.738  -7.128  0.00  0.00    +0.000 OA
ENDROOT
TORSDOF 0
REMARK  Name = ../refined-set-2016/3ehy/3ehy_pocket.pdb
REMARK  160 active torsions:
REMARK  status: ('A' for Active; 'I' for Inactive)
REMARK    1  A    between atoms: _1  and  _3
REMARK    2  A    between atoms: _3  and  _4
REMARK    3  A    between atoms: _3  and  _6
REMARK    4  A    between atoms: _6  and  _7
REMARK    5  A    between atoms: _12  and  _14
REMARK    6  A    between atoms: _14  and  _15
REMARK    7  A    between atoms: _14  and  _17
REMARK    8  A    between atoms: _17  and  _18
REMARK    9  A    between atoms: _24  and  _26
REMARK   10  A    between atoms: _26  and  _27
REMARK   11  A    between atoms: _26  and  _29
REMARK   12  A    between atoms: _29  and  _30
REMARK   13  A    between atoms: _33  and  _35
REMARK   14  A    between atoms: _35  and  _36
REMARK   15  A    between atoms: _38  and  _40
REMARK   16  A    between atoms: _40  and  _41
REMARK   17  A    between atoms: _43  and  _45
REMARK   18  A    between atoms: _45  and  _46
REMARK   19  A    between atoms: _45  and  _48
REMARK   20  A    between atoms: _46  and  _47
REMARK   21  A    between atoms: _46  and  _52
REMARK   22  A    between atoms: _47  and  CA_393
REMARK   23  A    between atoms: _48  and  _49
REMARK   24  A    between atoms: _52  and  _54
REMARK   25  A    between atoms: _54  and  _55
REMARK   26  A    between atoms: _54  and  _57
REMARK   27  A    between atoms: _57  and  _58
REMARK   28  A    between atoms: _61  and  _63
REMARK   29  A    between atoms: _63  and  _64
REMARK   30  A    between atoms: _67  and  _69
REMARK   31  A    between atoms: _69  and  _70
REMARK   32  A    between atoms: _69  and  _72
REMARK   33  A    between atoms: _72  and  _73
REMARK   34  A    between atoms: _78  and  _80
REMARK   35  A    between atoms: _80  and  _81
REMARK   36  A    between atoms: _84  and  _86
REMARK   37  A    between atoms: _86  and  _87
REMARK   38  A    between atoms: _86  and  _89
REMARK   39  A    between atoms: _89  and  _90
REMARK   40  A    between atoms: _95  and  _97
REMARK   41  A    between atoms: _97  and  _98
REMARK   42  A    between atoms: _97  and  _100
REMARK   43  A    between atoms: _100  and  _101
REMARK   44  A    between atoms: _107  and  _109
REMARK   45  A    between atoms: _109  and  _110
REMARK   46  A    between atoms: _109  and  _112
REMARK   47  A    between atoms: _112  and  _113
REMARK   48  A    between atoms: _116  and  _118
REMARK   49  A    between atoms: _118  and  _119
REMARK   50  A    between atoms: _118  and  _121
REMARK   51  A    between atoms: _121  and  _122
REMARK   52  A    between atoms: _122  and  _123
REMARK   53  A    between atoms: _123  and  _125
REMARK   54  A    between atoms: _125  and  CA_393
REMARK   55  A    between atoms: _126  and  _128
REMARK   56  A    between atoms: _128  and  _129
REMARK   57  A    between atoms: _128  and  _131
REMARK   58  A    between atoms: _131  and  _132
REMARK   59  A    between atoms: _142  and  _144
REMARK   60  A    between atoms: _144  and  _145
REMARK   61  A    between atoms: _144  and  _147
REMARK   62  A    between atoms: _147  and  _148
REMARK   63  A    between atoms: _151  and  _153
REMARK   64  A    between atoms: _153  and  _154
REMARK   65  A    between atoms: _153  and  _156
REMARK   66  A    between atoms: _156  and  _157
REMARK   67  A    between atoms: _162  and  _164
REMARK   68  A    between atoms: _164  and  _165
REMARK   69  A    between atoms: _164  and  _167
REMARK   70  A    between atoms: _167  and  _168
REMARK   71  A    between atoms: _171  and  _173
REMARK   72  A    between atoms: _173  and  _174
REMARK   73  A    between atoms: _173  and  _176
REMARK   74  A    between atoms: _176  and  _177
REMARK   75  A    between atoms: _183  and  _185
REMARK   76  A    between atoms: _185  and  _186
REMARK   77  A    between atoms: _185  and  _188
REMARK   78  A    between atoms: _188  and  _189
REMARK   79  A    between atoms: _192  and  _194
REMARK   80  A    between atoms: _194  and  _195
REMARK   81  A    between atoms: _194  and  _197
REMARK   82  A    between atoms: _197  and  _198
REMARK   83  A    between atoms: _201  and  _203
REMARK   84  A    between atoms: _203  and  _204
REMARK   85  A    between atoms: _207  and  _209
REMARK   86  A    between atoms: _209  and  _210
REMARK   87  A    between atoms: _209  and  _212
REMARK   88  A    between atoms: _215  and  _217
REMARK   89  A    between atoms: _217  and  _218
REMARK   90  A    between atoms: _217  and  _220
REMARK   91  A    between atoms: _220  and  _221
REMARK   92  A    between atoms: _225  and  ZN_392
REMARK   93  A    between atoms: _226  and  _228
REMARK   94  A    between atoms: _228  and  _229
REMARK   95  A    between atoms: _228  and  _231
REMARK   96  A    between atoms: _231  and  _232
REMARK   97  A    between atoms: _232  and  _233
REMARK   98  A    between atoms: _236  and  _238
REMARK   99  A    between atoms: _238  and  _239
REMARK  100  A    between atoms: _238  and  _241
REMARK  101  A    between atoms: _241  and  _242
REMARK  102  A    between atoms: _245  and  _247
REMARK  103  A    between atoms: _247  and  _248
REMARK  104  A    between atoms: _247  and  _250
REMARK  105  A    between atoms: _250  and  _251
REMARK  106  A    between atoms: _255  and  ZN_392
REMARK  107  A    between atoms: _256  and  _258
REMARK  108  A    between atoms: _258  and  _259
REMARK  109  A    between atoms: _258  and  _261
REMARK  110  A    between atoms: _261  and  _262
REMARK  111  A    between atoms: _264  and  _266
REMARK  112  A    between atoms: _266  and  _267
REMARK  113  A    between atoms: _269  and  _271
REMARK  114  A    between atoms: _271  and  _272
REMARK  115  A    between atoms: _271  and  _274
REMARK  116  A    between atoms: _274  and  _275
REMARK  117  A    between atoms: _279  and  ZN_392
REMARK  118  A    between atoms: _280  and  _282
REMARK  119  A    between atoms: _282  and  _283
REMARK  120  A    between atoms: _286  and  _288
REMARK  121  A    between atoms: _288  and  _289
REMARK  122  A    between atoms: _288  and  _291
REMARK  123  A    between atoms: _294  and  _296
REMARK  124  A    between atoms: _296  and  _297
REMARK  125  A    between atoms: _296  and  _299
REMARK  126  A    between atoms: _299  and  _300
REMARK  127  A    between atoms: _300  and  _301
REMARK  128  A    between atoms: _303  and  _305
REMARK  129  A    between atoms: _305  and  _306
REMARK  130  A    between atoms: _305  and  _308
REMARK  131  A    between atoms: _308  and  _309
REMARK  132  A    between atoms: _316  and  _317
REMARK  133  A    between atoms: _322  and  _324
REMARK  134  A    between atoms: _324  and  _325
REMARK  135  A    between atoms: _324  and  _327
REMARK  136  A    between atoms: _327  and  _328
REMARK  137  A    between atoms: _331  and  _333
REMARK  138  A    between atoms: _333  and  _334
REMARK  139  A    between atoms: _333  and  _336
REMARK  140  A    between atoms: _336  and  _337
REMARK  141  A    between atoms: _342  and  _343
REMARK  142  A    between atoms: _345  and  _347
REMARK  143  A    between atoms: _347  and  _348
REMARK  144  A    between atoms: _347  and  _350
REMARK  145  A    between atoms: _350  and  _351
REMARK  146  A    between atoms: _351  and  _352
REMARK  147  A    between atoms: _352  and  _353
REMARK  148  A    between atoms: _353  and  _354
REMARK  149  A    between atoms: _358  and  _360
REMARK  150  A    between atoms: _360  and  _361
REMARK  151  A    between atoms: _360  and  _363
REMARK  152  A    between atoms: _363  and  _364
REMARK  153  A    between atoms: _369  and  _370
REMARK  154  A    between atoms: _372  and  _374
REMARK  155  A    between atoms: _374  and  _375
REMARK  156  A    between atoms: _374  and  _377
REMARK  157  A    between atoms: _380  and  _382
REMARK  158  A    between atoms: _382  and  _383
REMARK  159  A    between atoms: _382  and  _385
REMARK  160  A    between atoms: _385  and  _386
REMARK                            x       y       z     vdW  Elec       q    Type
REMARK                         _______ _______ _______ _____ _____    ______ ____
ROOT
ATOM      1  O   HOH     1       2.755   1.391   1.807  0.00  0.00    +0.000 OA
ENDROOT
TORSDOF 0
REMARK  Name = ../refined-set-2016/3ehy/3ehy_pocket.pdb
REMARK  160 active torsions:
REMARK  status: ('A' for Active; 'I' for Inactive)
REMARK    1  A    between atoms: _1  and  _3
REMARK    2  A    between atoms: _3  and  _4
REMARK    3  A    between atoms: _3  and  _6
REMARK    4  A    between atoms: _6  and  _7
REMARK    5  A    between atoms: _12  and  _14
REMARK    6  A    between atoms: _14  and  _15
REMARK    7  A    between atoms: _14  and  _17
REMARK    8  A    between atoms: _17  and  _18
REMARK    9  A    between atoms: _24  and  _26
REMARK   10  A    between atoms: _26  and  _27
REMARK   11  A    between atoms: _26  and  _29
REMARK   12  A    between atoms: _29  and  _30
REMARK   13  A    between atoms: _33  and  _35
REMARK   14  A    between atoms: _35  and  _36
REMARK   15  A    between atoms: _38  and  _40
REMARK   16  A    between atoms: _40  and  _41
REMARK   17  A    between atoms: _43  and  _45
REMARK   18  A    between atoms: _45  and  _46
REMARK   19  A    between atoms: _45  and  _48
REMARK   20  A    between atoms: _46  and  _47
REMARK   21  A    between atoms: _46  and  _52
REMARK   22  A    between atoms: _47  and  CA_393
REMARK   23  A    between atoms: _48  and  _49
REMARK   24  A    between atoms: _52  and  _54
REMARK   25  A    between atoms: _54  and  _55
REMARK   26  A    between atoms: _54  and  _57
REMARK   27  A    between atoms: _57  and  _58
REMARK   28  A    between atoms: _61  and  _63
REMARK   29  A    between atoms: _63  and  _64
REMARK   30  A    between atoms: _67  and  _69
REMARK   31  A    between atoms: _69  and  _70
REMARK   32  A    between atoms: _69  and  _72
REMARK   33  A    between atoms: _72  and  _73
REMARK   34  A    between atoms: _78  and  _80
REMARK   35  A    between atoms: _80  and  _81
REMARK   36  A    between atoms: _84  and  _86
REMARK   37  A    between atoms: _86  and  _87
REMARK   38  A    between atoms: _86  and  _89
REMARK   39  A    between atoms: _89  and  _90
REMARK   40  A    between atoms: _95  and  _97
REMARK   41  A    between atoms: _97  and  _98
REMARK   42  A    between atoms: _97  and  _100
REMARK   43  A    between atoms: _100  and  _101
REMARK   44  A    between atoms: _107  and  _109
REMARK   45  A    between atoms: _109  and  _110
REMARK   46  A    between atoms: _109  and  _112
REMARK   47  A    between atoms: _112  and  _113
REMARK   48  A    between atoms: _116  and  _118
REMARK   49  A    between atoms: _118  and  _119
REMARK   50  A    between atoms: _118  and  _121
REMARK   51  A    between atoms: _121  and  _122
REMARK   52  A    between atoms: _122  and  _123
REMARK   53  A    between atoms: _123  and  _125
REMARK   54  A    between atoms: _125  and  CA_393
REMARK   55  A    between atoms: _126  and  _128
REMARK   56  A    between atoms: _128  and  _129
REMARK   57  A    between atoms: _128  and  _131
REMARK   58  A    between atoms: _131  and  _132
REMARK   59  A    between atoms: _142  and  _144
REMARK   60  A    between atoms: _144  and  _145
REMARK   61  A    between atoms: _144  and  _147
REMARK   62  A    between atoms: _147  and  _148
REMARK   63  A    between atoms: _151  and  _153
REMARK   64  A    between atoms: _153  and  _154
REMARK   65  A    between atoms: _153  and  _156
REMARK   66  A    between atoms: _156  and  _157
REMARK   67  A    between atoms: _162  and  _164
REMARK   68  A    between atoms: _164  and  _165
REMARK   69  A    between atoms: _164  and  _167
REMARK   70  A    between atoms: _167  and  _168
REMARK   71  A    between atoms: _171  and  _173
REMARK   72  A    between atoms: _173  and  _174
REMARK   73  A    between atoms: _173  and  _176
REMARK   74  A    between atoms: _176  and  _177
REMARK   75  A    between atoms: _183  and  _185
REMARK   76  A    between atoms: _185  and  _186
REMARK   77  A    between atoms: _185  and  _188
REMARK   78  A    between atoms: _188  and  _189
REMARK   79  A    between atoms: _192  and  _194
REMARK   80  A    between atoms: _194  and  _195
REMARK   81  A    between atoms: _194  and  _197
REMARK   82  A    between atoms: _197  and  _198
REMARK   83  A    between atoms: _201  and  _203
REMARK   84  A    between atoms: _203  and  _204
REMARK   85  A    between atoms: _207  and  _209
REMARK   86  A    between atoms: _209  and  _210
REMARK   87  A    between atoms: _209  and  _212
REMARK   88  A    between atoms: _215  and  _217
REMARK   89  A    between atoms: _217  and  _218
REMARK   90  A    between atoms: _217  and  _220
REMARK   91  A    between atoms: _220  and  _221
REMARK   92  A    between atoms: _225  and  ZN_392
REMARK   93  A    between atoms: _226  and  _228
REMARK   94  A    between atoms: _228  and  _229
REMARK   95  A    between atoms: _228  and  _231
REMARK   96  A    between atoms: _231  and  _232
REMARK   97  A    between atoms: _232  and  _233
REMARK   98  A    between atoms: _236  and  _238
REMARK   99  A    between atoms: _238  and  _239
REMARK  100  A    between atoms: _238  and  _241
REMARK  101  A    between atoms: _241  and  _242
REMARK  102  A    between atoms: _245  and  _247
REMARK  103  A    between atoms: _247  and  _248
REMARK  104  A    between atoms: _247  and  _250
REMARK  105  A    between atoms: _250  and  _251
REMARK  106  A    between atoms: _255  and  ZN_392
REMARK  107  A    between atoms: _256  and  _258
REMARK  108  A    between atoms: _258  and  _259
REMARK  109  A    between atoms: _258  and  _261
REMARK  110  A    between atoms: _261  and  _262
REMARK  111  A    between atoms: _264  and  _266
REMARK  112  A    between atoms: _266  and  _267
REMARK  113  A    between atoms: _269  and  _271
REMARK  114  A    between atoms: _271  and  _272
REMARK  115  A    between atoms: _271  and  _274
REMARK  116  A    between atoms: _274  and  _275
REMARK  117  A    between atoms: _279  and  ZN_392
REMARK  118  A    between atoms: _280  and  _282
REMARK  119  A    between atoms: _282  and  _283
REMARK  120  A    between atoms: _286  and  _288
REMARK  121  A    between atoms: _288  and  _289
REMARK  122  A    between atoms: _288  and  _291
REMARK  123  A    between atoms: _294  and  _296
REMARK  124  A    between atoms: _296  and  _297
REMARK  125  A    between atoms: _296  and  _299
REMARK  126  A    between atoms: _299  and  _300
REMARK  127  A    between atoms: _300  and  _301
REMARK  128  A    between atoms: _303  and  _305
REMARK  129  A    between atoms: _305  and  _306
REMARK  130  A    between atoms: _305  and  _308
REMARK  131  A    between atoms: _308  and  _309
REMARK  132  A    between atoms: _316  and  _317
REMARK  133  A    between atoms: _322  and  _324
REMARK  134  A    between atoms: _324  and  _325
REMARK  135  A    between atoms: _324  and  _327
REMARK  136  A    between atoms: _327  and  _328
REMARK  137  A    between atoms: _331  and  _333
REMARK  138  A    between atoms: _333  and  _334
REMARK  139  A    between atoms: _333  and  _336
REMARK  140  A    between atoms: _336  and  _337
REMARK  141  A    between atoms: _342  and  _343
REMARK  142  A    between atoms: _345  and  _347
REMARK  143  A    between atoms: _347  and  _348
REMARK  144  A    between atoms: _347  and  _350
REMARK  145  A    between atoms: _350  and  _351
REMARK  146  A    between atoms: _351  and  _352
REMARK  147  A    between atoms: _352  and  _353
REMARK  148  A    between atoms: _353  and  _354
REMARK  149  A    between atoms: _358  and  _360
REMARK  150  A    between atoms: _360  and  _361
REMARK  151  A    between atoms: _360  and  _363
REMARK  152  A    between atoms: _363  and  _364
REMARK  153  A    between atoms: _369  and  _370
REMARK  154  A    between atoms: _372  and  _374
REMARK  155  A    between atoms: _374  and  _375
REMARK  156  A    between atoms: _374  and  _377
REMARK  157  A    between atoms: _380  and  _382
REMARK  158  A    between atoms: _382  and  _383
REMARK  159  A    between atoms: _382  and  _385
REMARK  160  A    between atoms: _385  and  _386
REMARK                            x       y       z     vdW  Elec       q    Type
REMARK                         _______ _______ _______ _____ _____    ______ ____
ROOT
ATOM      1  O   HOH     1      -1.878  -2.243   0.042  0.00  0.00    +0.000 OA
ENDROOT
TORSDOF 0
REMARK  Name = ../refined-set-2016/3ehy/3ehy_pocket.pdb
REMARK  160 active torsions:
REMARK  status: ('A' for Active; 'I' for Inactive)
REMARK    1  A    between atoms: _1  and  _3
REMARK    2  A    between atoms: _3  and  _4
REMARK    3  A    between atoms: _3  and  _6
REMARK    4  A    between atoms: _6  and  _7
REMARK    5  A    between atoms: _12  and  _14
REMARK    6  A    between atoms: _14  and  _15
REMARK    7  A    between atoms: _14  and  _17
REMARK    8  A    between atoms: _17  and  _18
REMARK    9  A    between atoms: _24  and  _26
REMARK   10  A    between atoms: _26  and  _27
REMARK   11  A    between atoms: _26  and  _29
REMARK   12  A    between atoms: _29  and  _30
REMARK   13  A    between atoms: _33  and  _35
REMARK   14  A    between atoms: _35  and  _36
REMARK   15  A    between atoms: _38  and  _40
REMARK   16  A    between atoms: _40  and  _41
REMARK   17  A    between atoms: _43  and  _45
REMARK   18  A    between atoms: _45  and  _46
REMARK   19  A    between atoms: _45  and  _48
REMARK   20  A    between atoms: _46  and  _47
REMARK   21  A    between atoms: _46  and  _52
REMARK   22  A    between atoms: _47  and  CA_393
REMARK   23  A    between atoms: _48  and  _49
REMARK   24  A    between atoms: _52  and  _54
REMARK   25  A    between atoms: _54  and  _55
REMARK   26  A    between atoms: _54  and  _57
REMARK   27  A    between atoms: _57  and  _58
REMARK   28  A    between atoms: _61  and  _63
REMARK   29  A    between atoms: _63  and  _64
REMARK   30  A    between atoms: _67  and  _69
REMARK   31  A    between atoms: _69  and  _70
REMARK   32  A    between atoms: _69  and  _72
REMARK   33  A    between atoms: _72  and  _73
REMARK   34  A    between atoms: _78  and  _80
REMARK   35  A    between atoms: _80  and  _81
REMARK   36  A    between atoms: _84  and  _86
REMARK   37  A    between atoms: _86  and  _87
REMARK   38  A    between atoms: _86  and  _89
REMARK   39  A    between atoms: _89  and  _90
REMARK   40  A    between atoms: _95  and  _97
REMARK   41  A    between atoms: _97  and  _98
REMARK   42  A    between atoms: _97  and  _100
REMARK   43  A    between atoms: _100  and  _101
REMARK   44  A    between atoms: _107  and  _109
REMARK   45  A    between atoms: _109  and  _110
REMARK   46  A    between atoms: _109  and  _112
REMARK   47  A    between atoms: _112  and  _113
REMARK   48  A    between atoms: _116  and  _118
REMARK   49  A    between atoms: _118  and  _119
REMARK   50  A    between atoms: _118  and  _121
REMARK   51  A    between atoms: _121  and  _122
REMARK   52  A    between atoms: _122  and  _123
REMARK   53  A    between atoms: _123  and  _125
REMARK   54  A    between atoms: _125  and  CA_393
REMARK   55  A    between atoms: _126  and  _128
REMARK   56  A    between atoms: _128  and  _129
REMARK   57  A    between atoms: _128  and  _131
REMARK   58  A    between atoms: _131  and  _132
REMARK   59  A    between atoms: _142  and  _144
REMARK   60  A    between atoms: _144  and  _145
REMARK   61  A    between atoms: _144  and  _147
REMARK   62  A    between atoms: _147  and  _148
REMARK   63  A    between atoms: _151  and  _153
REMARK   64  A    between atoms: _153  and  _154
REMARK   65  A    between atoms: _153  and  _156
REMARK   66  A    between atoms: _156  and  _157
REMARK   67  A    between atoms: _162  and  _164
REMARK   68  A    between atoms: _164  and  _165
REMARK   69  A    between atoms: _164  and  _167
REMARK   70  A    between atoms: _167  and  _168
REMARK   71  A    between atoms: _171  and  _173
REMARK   72  A    between atoms: _173  and  _174
REMARK   73  A    between atoms: _173  and  _176
REMARK   74  A    between atoms: _176  and  _177
REMARK   75  A    between atoms: _183  and  _185
REMARK   76  A    between atoms: _185  and  _186
REMARK   77  A    between atoms: _185  and  _188
REMARK   78  A    between atoms: _188  and  _189
REMARK   79  A    between atoms: _192  and  _194
REMARK   80  A    between atoms: _194  and  _195
REMARK   81  A    between atoms: _194  and  _197
REMARK   82  A    between atoms: _197  and  _198
REMARK   83  A    between atoms: _201  and  _203
REMARK   84  A    between atoms: _203  and  _204
REMARK   85  A    between atoms: _207  and  _209
REMARK   86  A    between atoms: _209  and  _210
REMARK   87  A    between atoms: _209  and  _212
REMARK   88  A    between atoms: _215  and  _217
REMARK   89  A    between atoms: _217  and  _218
REMARK   90  A    between atoms: _217  and  _220
REMARK   91  A    between atoms: _220  and  _221
REMARK   92  A    between atoms: _225  and  ZN_392
REMARK   93  A    between atoms: _226  and  _228
REMARK   94  A    between atoms: _228  and  _229
REMARK   95  A    between atoms: _228  and  _231
REMARK   96  A    between atoms: _231  and  _232
REMARK   97  A    between atoms: _232  and  _233
REMARK   98  A    between atoms: _236  and  _238
REMARK   99  A    between atoms: _238  and  _239
REMARK  100  A    between atoms: _238  and  _241
REMARK  101  A    between atoms: _241  and  _242
REMARK  102  A    between atoms: _245  and  _247
REMARK  103  A    between atoms: _247  and  _248
REMARK  104  A    between atoms: _247  and  _250
REMARK  105  A    between atoms: _250  and  _251
REMARK  106  A    between atoms: _255  and  ZN_392
REMARK  107  A    between atoms: _256  and  _258
REMARK  108  A    between atoms: _258  and  _259
REMARK  109  A    between atoms: _258  and  _261
REMARK  110  A    between atoms: _261  and  _262
REMARK  111  A    between atoms: _264  and  _266
REMARK  112  A    between atoms: _266  and  _267
REMARK  113  A    between atoms: _269  and  _271
REMARK  114  A    between atoms: _271  and  _272
REMARK  115  A    between atoms: _271  and  _274
REMARK  116  A    between atoms: _274  and  _275
REMARK  117  A    between atoms: _279  and  ZN_392
REMARK  118  A    between atoms: _280  and  _282
REMARK  119  A    between atoms: _282  and  _283
REMARK  120  A    between atoms: _286  and  _288
REMARK  121  A    between atoms: _288  and  _289
REMARK  122  A    between atoms: _288  and  _291
REMARK  123  A    between atoms: _294  and  _296
REMARK  124  A    between atoms: _296  and  _297
REMARK  125  A    between atoms: _296  and  _299
REMARK  126  A    between atoms: _299  and  _300
REMARK  127  A    between atoms: _300  and  _301
REMARK  128  A    between atoms: _303  and  _305
REMARK  129  A    between atoms: _305  and  _306
REMARK  130  A    between atoms: _305  and  _308
REMARK  131  A    between atoms: _308  and  _309
REMARK  132  A    between atoms: _316  and  _317
REMARK  133  A    between atoms: _322  and  _324
REMARK  134  A    between atoms: _324  and  _325
REMARK  135  A    between atoms: _324  and  _327
REMARK  136  A    between atoms: _327  and  _328
REMARK  137  A    between atoms: _331  and  _333
REMARK  138  A    between atoms: _333  and  _334
REMARK  139  A    between atoms: _333  and  _336
REMARK  140  A    between atoms: _336  and  _337
REMARK  141  A    between atoms: _342  and  _343
REMARK  142  A    between atoms: _345  and  _347
REMARK  143  A    between atoms: _347  and  _348
REMARK  144  A    between atoms: _347  and  _350
REMARK  145  A    between atoms: _350  and  _351
REMARK  146  A    between atoms: _351  and  _352
REMARK  147  A    between atoms: _352  and  _353
REMARK  148  A    between atoms: _353  and  _354
REMARK  149  A    between atoms: _358  and  _360
REMARK  150  A    between atoms: _360  and  _361
REMARK  151  A    between atoms: _360  and  _363
REMARK  152  A    between atoms: _363  and  _364
REMARK  153  A    between atoms: _369  and  _370
REMARK  154  A    between atoms: _372  and  _374
REMARK  155  A    between atoms: _374  and  _375
REMARK  156  A    between atoms: _374  and  _377
REMARK  157  A    between atoms: _380  and  _382
REMARK  158  A    between atoms: _382  and  _383
REMARK  159  A    between atoms: _382  and  _385
REMARK  160  A    between atoms: _385  and  _386
REMARK                            x       y       z     vdW  Elec       q    Type
REMARK                         _______ _______ _______ _____ _____    ______ ____
ROOT
ATOM      1  O   HOH     1      -7.750  -8.897  -8.894  0.00  0.00    +0.000 OA
ENDROOT
TORSDOF 0
REMARK  Name = ../refined-set-2016/3ehy/3ehy_pocket.pdb
REMARK  160 active torsions:
REMARK  status: ('A' for Active; 'I' for Inactive)
REMARK    1  A    between atoms: _1  and  _3
REMARK    2  A    between atoms: _3  and  _4
REMARK    3  A    between atoms: _3  and  _6
REMARK    4  A    between atoms: _6  and  _7
REMARK    5  A    between atoms: _12  and  _14
REMARK    6  A    between atoms: _14  and  _15
REMARK    7  A    between atoms: _14  and  _17
REMARK    8  A    between atoms: _17  and  _18
REMARK    9  A    between atoms: _24  and  _26
REMARK   10  A    between atoms: _26  and  _27
REMARK   11  A    between atoms: _26  and  _29
REMARK   12  A    between atoms: _29  and  _30
REMARK   13  A    between atoms: _33  and  _35
REMARK   14  A    between atoms: _35  and  _36
REMARK   15  A    between atoms: _38  and  _40
REMARK   16  A    between atoms: _40  and  _41
REMARK   17  A    between atoms: _43  and  _45
REMARK   18  A    between atoms: _45  and  _46
REMARK   19  A    between atoms: _45  and  _48
REMARK   20  A    between atoms: _46  and  _47
REMARK   21  A    between atoms: _46  and  _52
REMARK   22  A    between atoms: _47  and  CA_393
REMARK   23  A    between atoms: _48  and  _49
REMARK   24  A    between atoms: _52  and  _54
REMARK   25  A    between atoms: _54  and  _55
REMARK   26  A    between atoms: _54  and  _57
REMARK   27  A    between atoms: _57  and  _58
REMARK   28  A    between atoms: _61  and  _63
REMARK   29  A    between atoms: _63  and  _64
REMARK   30  A    between atoms: _67  and  _69
REMARK   31  A    between atoms: _69  and  _70
REMARK   32  A    between atoms: _69  and  _72
REMARK   33  A    between atoms: _72  and  _73
REMARK   34  A    between atoms: _78  and  _80
REMARK   35  A    between atoms: _80  and  _81
REMARK   36  A    between atoms: _84  and  _86
REMARK   37  A    between atoms: _86  and  _87
REMARK   38  A    between atoms: _86  and  _89
REMARK   39  A    between atoms: _89  and  _90
REMARK   40  A    between atoms: _95  and  _97
REMARK   41  A    between atoms: _97  and  _98
REMARK   42  A    between atoms: _97  and  _100
REMARK   43  A    between atoms: _100  and  _101
REMARK   44  A    between atoms: _107  and  _109
REMARK   45  A    between atoms: _109  and  _110
REMARK   46  A    between atoms: _109  and  _112
REMARK   47  A    between atoms: _112  and  _113
REMARK   48  A    between atoms: _116  and  _118
REMARK   49  A    between atoms: _118  and  _119
REMARK   50  A    between atoms: _118  and  _121
REMARK   51  A    between atoms: _121  and  _122
REMARK   52  A    between atoms: _122  and  _123
REMARK   53  A    between atoms: _123  and  _125
REMARK   54  A    between atoms: _125  and  CA_393
REMARK   55  A    between atoms: _126  and  _128
REMARK   56  A    between atoms: _128  and  _129
REMARK   57  A    between atoms: _128  and  _131
REMARK   58  A    between atoms: _131  and  _132
REMARK   59  A    between atoms: _142  and  _144
REMARK   60  A    between atoms: _144  and  _145
REMARK   61  A    between atoms: _144  and  _147
REMARK   62  A    between atoms: _147  and  _148
REMARK   63  A    between atoms: _151  and  _153
REMARK   64  A    between atoms: _153  and  _154
REMARK   65  A    between atoms: _153  and  _156
REMARK   66  A    between atoms: _156  and  _157
REMARK   67  A    between atoms: _162  and  _164
REMARK   68  A    between atoms: _164  and  _165
REMARK   69  A    between atoms: _164  and  _167
REMARK   70  A    between atoms: _167  and  _168
REMARK   71  A    between atoms: _171  and  _173
REMARK   72  A    between atoms: _173  and  _174
REMARK   73  A    between atoms: _173  and  _176
REMARK   74  A    between atoms: _176  and  _177
REMARK   75  A    between atoms: _183  and  _185
REMARK   76  A    between atoms: _185  and  _186
REMARK   77  A    between atoms: _185  and  _188
REMARK   78  A    between atoms: _188  and  _189
REMARK   79  A    between atoms: _192  and  _194
REMARK   80  A    between atoms: _194  and  _195
REMARK   81  A    between atoms: _194  and  _197
REMARK   82  A    between atoms: _197  and  _198
REMARK   83  A    between atoms: _201  and  _203
REMARK   84  A    between atoms: _203  and  _204
REMARK   85  A    between atoms: _207  and  _209
REMARK   86  A    between atoms: _209  and  _210
REMARK   87  A    between atoms: _209  and  _212
REMARK   88  A    between atoms: _215  and  _217
REMARK   89  A    between atoms: _217  and  _218
REMARK   90  A    between atoms: _217  and  _220
REMARK   91  A    between atoms: _220  and  _221
REMARK   92  A    between atoms: _225  and  ZN_392
REMARK   93  A    between atoms: _226  and  _228
REMARK   94  A    between atoms: _228  and  _229
REMARK   95  A    between atoms: _228  and  _231
REMARK   96  A    between atoms: _231  and  _232
REMARK   97  A    between atoms: _232  and  _233
REMARK   98  A    between atoms: _236  and  _238
REMARK   99  A    between atoms: _238  and  _239
REMARK  100  A    between atoms: _238  and  _241
REMARK  101  A    between atoms: _241  and  _242
REMARK  102  A    between atoms: _245  and  _247
REMARK  103  A    between atoms: _247  and  _248
REMARK  104  A    between atoms: _247  and  _250
REMARK  105  A    between atoms: _250  and  _251
REMARK  106  A    between atoms: _255  and  ZN_392
REMARK  107  A    between atoms: _256  and  _258
REMARK  108  A    between atoms: _258  and  _259
REMARK  109  A    between atoms: _258  and  _261
REMARK  110  A    between atoms: _261  and  _262
REMARK  111  A    between atoms: _264  and  _266
REMARK  112  A    between atoms: _266  and  _267
REMARK  113  A    between atoms: _269  and  _271
REMARK  114  A    between atoms: _271  and  _272
REMARK  115  A    between atoms: _271  and  _274
REMARK  116  A    between atoms: _274  and  _275
REMARK  117  A    between atoms: _279  and  ZN_392
REMARK  118  A    between atoms: _280  and  _282
REMARK  119  A    between atoms: _282  and  _283
REMARK  120  A    between atoms: _286  and  _288
REMARK  121  A    between atoms: _288  and  _289
REMARK  122  A    between atoms: _288  and  _291
REMARK  123  A    between atoms: _294  and  _296
REMARK  124  A    between atoms: _296  and  _297
REMARK  125  A    between atoms: _296  and  _299
REMARK  126  A    between atoms: _299  and  _300
REMARK  127  A    between atoms: _300  and  _301
REMARK  128  A    between atoms: _303  and  _305
REMARK  129  A    between atoms: _305  and  _306
REMARK  130  A    between atoms: _305  and  _308
REMARK  131  A    between atoms: _308  and  _309
REMARK  132  A    between atoms: _316  and  _317
REMARK  133  A    between atoms: _322  and  _324
REMARK  134  A    between atoms: _324  and  _325
REMARK  135  A    between atoms: _324  and  _327
REMARK  136  A    between atoms: _327  and  _328
REMARK  137  A    between atoms: _331  and  _333
REMARK  138  A    between atoms: _333  and  _334
REMARK  139  A    between atoms: _333  and  _336
REMARK  140  A    between atoms: _336  and  _337
REMARK  141  A    between atoms: _342  and  _343
REMARK  142  A    between atoms: _345  and  _347
REMARK  143  A    between atoms: _347  and  _348
REMARK  144  A    between atoms: _347  and  _350
REMARK  145  A    between atoms: _350  and  _351
REMARK  146  A    between atoms: _351  and  _352
REMARK  147  A    between atoms: _352  and  _353
REMARK  148  A    between atoms: _353  and  _354
REMARK  149  A    between atoms: _358  and  _360
REMARK  150  A    between atoms: _360  and  _361
REMARK  151  A    between atoms: _360  and  _363
REMARK  152  A    between atoms: _363  and  _364
REMARK  153  A    between atoms: _369  and  _370
REMARK  154  A    between atoms: _372  and  _374
REMARK  155  A    between atoms: _374  and  _375
REMARK  156  A    between atoms: _374  and  _377
REMARK  157  A    between atoms: _380  and  _382
REMARK  158  A    between atoms: _382  and  _383
REMARK  159  A    between atoms: _382  and  _385
REMARK  160  A    between atoms: _385  and  _386
REMARK                            x       y       z     vdW  Elec       q    Type
REMARK                         _______ _______ _______ _____ _____    ______ ____
ROOT
ATOM      1  O   HOH     1      -1.900   5.471  -4.637  0.00  0.00    +0.000 OA
ENDROOT
TORSDOF 0
REMARK  Name = ../refined-set-2016/3ehy/3ehy_pocket.pdb
REMARK  160 active torsions:
REMARK  status: ('A' for Active; 'I' for Inactive)
REMARK    1  A    between atoms: _1  and  _3
REMARK    2  A    between atoms: _3  and  _4
REMARK    3  A    between atoms: _3  and  _6
REMARK    4  A    between atoms: _6  and  _7
REMARK    5  A    between atoms: _12  and  _14
REMARK    6  A    between atoms: _14  and  _15
REMARK    7  A    between atoms: _14  and  _17
REMARK    8  A    between atoms: _17  and  _18
REMARK    9  A    between atoms: _24  and  _26
REMARK   10  A    between atoms: _26  and  _27
REMARK   11  A    between atoms: _26  and  _29
REMARK   12  A    between atoms: _29  and  _30
REMARK   13  A    between atoms: _33  and  _35
REMARK   14  A    between atoms: _35  and  _36
REMARK   15  A    between atoms: _38  and  _40
REMARK   16  A    between atoms: _40  and  _41
REMARK   17  A    between atoms: _43  and  _45
REMARK   18  A    between atoms: _45  and  _46
REMARK   19  A    between atoms: _45  and  _48
REMARK   20  A    between atoms: _46  and  _47
REMARK   21  A    between atoms: _46  and  _52
REMARK   22  A    between atoms: _47  and  CA_393
REMARK   23  A    between atoms: _48  and  _49
REMARK   24  A    between atoms: _52  and  _54
REMARK   25  A    between atoms: _54  and  _55
REMARK   26  A    between atoms: _54  and  _57
REMARK   27  A    between atoms: _57  and  _58
REMARK   28  A    between atoms: _61  and  _63
REMARK   29  A    between atoms: _63  and  _64
REMARK   30  A    between atoms: _67  and  _69
REMARK   31  A    between atoms: _69  and  _70
REMARK   32  A    between atoms: _69  and  _72
REMARK   33  A    between atoms: _72  and  _73
REMARK   34  A    between atoms: _78  and  _80
REMARK   35  A    between atoms: _80  and  _81
REMARK   36  A    between atoms: _84  and  _86
REMARK   37  A    between atoms: _86  and  _87
REMARK   38  A    between atoms: _86  and  _89
REMARK   39  A    between atoms: _89  and  _90
REMARK   40  A    between atoms: _95  and  _97
REMARK   41  A    between atoms: _97  and  _98
REMARK   42  A    between atoms: _97  and  _100
REMARK   43  A    between atoms: _100  and  _101
REMARK   44  A    between atoms: _107  and  _109
REMARK   45  A    between atoms: _109  and  _110
REMARK   46  A    between atoms: _109  and  _112
REMARK   47  A    between atoms: _112  and  _113
REMARK   48  A    between atoms: _116  and  _118
REMARK   49  A    between atoms: _118  and  _119
REMARK   50  A    between atoms: _118  and  _121
REMARK   51  A    between atoms: _121  and  _122
REMARK   52  A    between atoms: _122  and  _123
REMARK   53  A    between atoms: _123  and  _125
REMARK   54  A    between atoms: _125  and  CA_393
REMARK   55  A    between atoms: _126  and  _128
REMARK   56  A    between atoms: _128  and  _129
REMARK   57  A    between atoms: _128  and  _131
REMARK   58  A    between atoms: _131  and  _132
REMARK   59  A    between atoms: _142  and  _144
REMARK   60  A    between atoms: _144  and  _145
REMARK   61  A    between atoms: _144  and  _147
REMARK   62  A    between atoms: _147  and  _148
REMARK   63  A    between atoms: _151  and  _153
REMARK   64  A    between atoms: _153  and  _154
REMARK   65  A    between atoms: _153  and  _156
REMARK   66  A    between atoms: _156  and  _157
REMARK   67  A    between atoms: _162  and  _164
REMARK   68  A    between atoms: _164  and  _165
REMARK   69  A    between atoms: _164  and  _167
REMARK   70  A    between atoms: _167  and  _168
REMARK   71  A    between atoms: _171  and  _173
REMARK   72  A    between atoms: _173  and  _174
REMARK   73  A    between atoms: _173  and  _176
REMARK   74  A    between atoms: _176  and  _177
REMARK   75  A    between atoms: _183  and  _185
REMARK   76  A    between atoms: _185  and  _186
REMARK   77  A    between atoms: _185  and  _188
REMARK   78  A    between atoms: _188  and  _189
REMARK   79  A    between atoms: _192  and  _194
REMARK   80  A    between atoms: _194  and  _195
REMARK   81  A    between atoms: _194  and  _197
REMARK   82  A    between atoms: _197  and  _198
REMARK   83  A    between atoms: _201  and  _203
REMARK   84  A    between atoms: _203  and  _204
REMARK   85  A    between atoms: _207  and  _209
REMARK   86  A    between atoms: _209  and  _210
REMARK   87  A    between atoms: _209  and  _212
REMARK   88  A    between atoms: _215  and  _217
REMARK   89  A    between atoms: _217  and  _218
REMARK   90  A    between atoms: _217  and  _220
REMARK   91  A    between atoms: _220  and  _221
REMARK   92  A    between atoms: _225  and  ZN_392
REMARK   93  A    between atoms: _226  and  _228
REMARK   94  A    between atoms: _228  and  _229
REMARK   95  A    between atoms: _228  and  _231
REMARK   96  A    between atoms: _231  and  _232
REMARK   97  A    between atoms: _232  and  _233
REMARK   98  A    between atoms: _236  and  _238
REMARK   99  A    between atoms: _238  and  _239
REMARK  100  A    between atoms: _238  and  _241
REMARK  101  A    between atoms: _241  and  _242
REMARK  102  A    between atoms: _245  and  _247
REMARK  103  A    between atoms: _247  and  _248
REMARK  104  A    between atoms: _247  and  _250
REMARK  105  A    between atoms: _250  and  _251
REMARK  106  A    between atoms: _255  and  ZN_392
REMARK  107  A    between atoms: _256  and  _258
REMARK  108  A    between atoms: _258  and  _259
REMARK  109  A    between atoms: _258  and  _261
REMARK  110  A    between atoms: _261  and  _262
REMARK  111  A    between atoms: _264  and  _266
REMARK  112  A    between atoms: _266  and  _267
REMARK  113  A    between atoms: _269  and  _271
REMARK  114  A    between atoms: _271  and  _272
REMARK  115  A    between atoms: _271  and  _274
REMARK  116  A    between atoms: _274  and  _275
REMARK  117  A    between atoms: _279  and  ZN_392
REMARK  118  A    between atoms: _280  and  _282
REMARK  119  A    between atoms: _282  and  _283
REMARK  120  A    between atoms: _286  and  _288
REMARK  121  A    between atoms: _288  and  _289
REMARK  122  A    between atoms: _288  and  _291
REMARK  123  A    between atoms: _294  and  _296
REMARK  124  A    between atoms: _296  and  _297
REMARK  125  A    between atoms: _296  and  _299
REMARK  126  A    between atoms: _299  and  _300
REMARK  127  A    between atoms: _300  and  _301
REMARK  128  A    between atoms: _303  and  _305
REMARK  129  A    between atoms: _305  and  _306
REMARK  130  A    between atoms: _305  and  _308
REMARK  131  A    between atoms: _308  and  _309
REMARK  132  A    between atoms: _316  and  _317
REMARK  133  A    between atoms: _322  and  _324
REMARK  134  A    between atoms: _324  and  _325
REMARK  135  A    between atoms: _324  and  _327
REMARK  136  A    between atoms: _327  and  _328
REMARK  137  A    between atoms: _331  and  _333
REMARK  138  A    between atoms: _333  and  _334
REMARK  139  A    between atoms: _333  and  _336
REMARK  140  A    between atoms: _336  and  _337
REMARK  141  A    between atoms: _342  and  _343
REMARK  142  A    between atoms: _345  and  _347
REMARK  143  A    between atoms: _347  and  _348
REMARK  144  A    between atoms: _347  and  _350
REMARK  145  A    between atoms: _350  and  _351
REMARK  146  A    between atoms: _351  and  _352
REMARK  147  A    between atoms: _352  and  _353
REMARK  148  A    between atoms: _353  and  _354
REMARK  149  A    between atoms: _358  and  _360
REMARK  150  A    between atoms: _360  and  _361
REMARK  151  A    between atoms: _360  and  _363
REMARK  152  A    between atoms: _363  and  _364
REMARK  153  A    between atoms: _369  and  _370
REMARK  154  A    between atoms: _372  and  _374
REMARK  155  A    between atoms: _374  and  _375
REMARK  156  A    between atoms: _374  and  _377
REMARK  157  A    between atoms: _380  and  _382
REMARK  158  A    between atoms: _382  and  _383
REMARK  159  A    between atoms: _382  and  _385
REMARK  160  A    between atoms: _385  and  _386
REMARK                            x       y       z     vdW  Elec       q    Type
REMARK                         _______ _______ _______ _____ _____    ______ ____
ROOT
ATOM      1  O   HOH     1     -12.559  -8.664 -10.898  0.00  0.00    +0.000 OA
ENDROOT
TORSDOF 0
