REMARK  Name = ../refined-set-2016/4i8z/4i8z_pocket.pdb
REMARK  210 active torsions:
REMARK  status: ('A' for Active; 'I' for Inactive)
REMARK    1  A    between atoms: _1  and  _3
REMARK    2  A    between atoms: _3  and  _4
REMARK    3  A    between atoms: _3  and  _6
REMARK    4  A    between atoms: _6  and  _7
REMARK    5  A    between atoms: _7  and  _8
REMARK    6  A    between atoms: _8  and  _9
REMARK    7  A    between atoms: _18  and  _20
REMARK    8  A    between atoms: _20  and  _21
REMARK    9  A    between atoms: _20  and  _23
REMARK   10  A    between atoms: _23  and  _24
REMARK   11  A    between atoms: _27  and  _29
REMARK   12  A    between atoms: _29  and  _30
REMARK   13  A    between atoms: _29  and  _32
REMARK   14  A    between atoms: _32  and  _33
REMARK   15  A    between atoms: _36  and  _38
REMARK   16  A    between atoms: _38  and  _39
REMARK   17  A    between atoms: _38  and  _41
REMARK   18  A    between atoms: _41  and  _42
REMARK   19  A    between atoms: _45  and  _47
REMARK   20  A    between atoms: _47  and  _48
REMARK   21  A    between atoms: _47  and  _50
REMARK   22  A    between atoms: _50  and  _51
REMARK   23  A    between atoms: _54  and  _56
REMARK   24  A    between atoms: _56  and  _57
REMARK   25  A    between atoms: _59  and  _61
REMARK   26  A    between atoms: _61  and  _62
REMARK   27  A    between atoms: _65  and  _67
REMARK   28  A    between atoms: _67  and  _68
REMARK   29  A    between atoms: _67  and  _70
REMARK   30  A    between atoms: _70  and  _71
REMARK   31  A    between atoms: _74  and  _76
REMARK   32  A    between atoms: _76  and  _77
REMARK   33  A    between atoms: _76  and  _79
REMARK   34  A    between atoms: _79  and  _80
REMARK   35  A    between atoms: _83  and  _85
REMARK   36  A    between atoms: _85  and  _86
REMARK   37  A    between atoms: _85  and  _88
REMARK   38  A    between atoms: _88  and  _89
REMARK   39  A    between atoms: _92  and  _94
REMARK   40  A    between atoms: _94  and  _95
REMARK   41  A    between atoms: _94  and  _97
REMARK   42  A    between atoms: _100  and  _102
REMARK   43  A    between atoms: _102  and  _103
REMARK   44  A    between atoms: _102  and  _105
REMARK   45  A    between atoms: _105  and  _106
REMARK   46  A    between atoms: _106  and  _107
REMARK   47  A    between atoms: _107  and  _108
REMARK   48  A    between atoms: _108  and  _109
REMARK   49  A    between atoms: _113  and  _115
REMARK   50  A    between atoms: _115  and  _116
REMARK   51  A    between atoms: _115  and  _118
REMARK   52  A    between atoms: _118  and  _119
REMARK   53  A    between atoms: _119  and  _120
REMARK   54  A    between atoms: _122  and  _124
REMARK   55  A    between atoms: _124  and  _125
REMARK   56  A    between atoms: _124  and  _127
REMARK   57  A    between atoms: _127  and  _128
REMARK   58  A    between atoms: _131  and  _133
REMARK   59  A    between atoms: _133  and  _134
REMARK   60  A    between atoms: _136  and  _138
REMARK   61  A    between atoms: _138  and  _139
REMARK   62  A    between atoms: _141  and  _143
REMARK   63  A    between atoms: _143  and  _144
REMARK   64  A    between atoms: _143  and  _146
REMARK   65  A    between atoms: _146  and  _147
REMARK   66  A    between atoms: _150  and  _152
REMARK   67  A    between atoms: _152  and  _153
REMARK   68  A    between atoms: _155  and  _157
REMARK   69  A    between atoms: _157  and  _158
REMARK   70  A    between atoms: _160  and  _162
REMARK   71  A    between atoms: _162  and  _163
REMARK   72  A    between atoms: _162  and  _165
REMARK   73  A    between atoms: _165  and  _166
REMARK   74  A    between atoms: _169  and  _171
REMARK   75  A    between atoms: _171  and  _172
REMARK   76  A    between atoms: _171  and  _174
REMARK   77  A    between atoms: _177  and  _179
REMARK   78  A    between atoms: _179  and  _180
REMARK   79  A    between atoms: _179  and  _182
REMARK   80  A    between atoms: _182  and  _183
REMARK   81  A    between atoms: _187  and  _188
REMARK   82  A    between atoms: _193  and  _195
REMARK   83  A    between atoms: _195  and  _196
REMARK   84  A    between atoms: _195  and  _198
REMARK   85  A    between atoms: _198  and  _199
REMARK   86  A    between atoms: _203  and  _204
REMARK   87  A    between atoms: _209  and  _211
REMARK   88  A    between atoms: _211  and  _212
REMARK   89  A    between atoms: _211  and  _214
REMARK   90  A    between atoms: _217  and  _219
REMARK   91  A    between atoms: _219  and  _220
REMARK   92  A    between atoms: _219  and  _222
REMARK   93  A    between atoms: _222  and  _223
REMARK   94  A    between atoms: _228  and  _230
REMARK   95  A    between atoms: _230  and  _231
REMARK   96  A    between atoms: _230  and  _233
REMARK   97  A    between atoms: _233  and  _234
REMARK   98  A    between atoms: _237  and  _239
REMARK   99  A    between atoms: _239  and  _240
REMARK  100  A    between atoms: _239  and  _242
REMARK  101  A    between atoms: _242  and  _243
REMARK  102  A    between atoms: _246  and  _248
REMARK  103  A    between atoms: _248  and  _249
REMARK  104  A    between atoms: _251  and  _253
REMARK  105  A    between atoms: _253  and  _254
REMARK  106  A    between atoms: _253  and  _256
REMARK  107  A    between atoms: _256  and  _257
REMARK  108  A    between atoms: _257  and  _258
REMARK  109  A    between atoms: _258  and  _259
REMARK  110  A    between atoms: _268  and  _270
REMARK  111  A    between atoms: _270  and  _271
REMARK  112  A    between atoms: _270  and  _273
REMARK  113  A    between atoms: _273  and  _274
REMARK  114  A    between atoms: _279  and  _281
REMARK  115  A    between atoms: _281  and  _282
REMARK  116  A    between atoms: _281  and  _284
REMARK  117  A    between atoms: _284  and  _285
REMARK  118  A    between atoms: _285  and  _286
REMARK  119  A    between atoms: _286  and  _287
REMARK  120  A    between atoms: _296  and  _298
REMARK  121  A    between atoms: _298  and  _299
REMARK  122  A    between atoms: _298  and  _301
REMARK  123  A    between atoms: _301  and  _302
REMARK  124  A    between atoms: _305  and  _307
REMARK  125  A    between atoms: _307  and  _308
REMARK  126  A    between atoms: _307  and  _310
REMARK  127  A    between atoms: _310  and  _311
REMARK  128  A    between atoms: _314  and  _316
REMARK  129  A    between atoms: _316  and  _317
REMARK  130  A    between atoms: _316  and  _319
REMARK  131  A    between atoms: _319  and  _320
REMARK  132  A    between atoms: _323  and  _325
REMARK  133  A    between atoms: _325  and  _326
REMARK  134  A    between atoms: _325  and  _328
REMARK  135  A    between atoms: _328  and  _329
REMARK  136  A    between atoms: _332  and  _334
REMARK  137  A    between atoms: _334  and  _335
REMARK  138  A    between atoms: _337  and  _339
REMARK  139  A    between atoms: _339  and  _340
REMARK  140  A    between atoms: _343  and  _345
REMARK  141  A    between atoms: _345  and  _346
REMARK  142  A    between atoms: _345  and  _348
REMARK  143  A    between atoms: _348  and  _349
REMARK  144  A    between atoms: _352  and  _354
REMARK  145  A    between atoms: _354  and  _355
REMARK  146  A    between atoms: _354  and  _357
REMARK  147  A    between atoms: _357  and  _358
REMARK  148  A    between atoms: _361  and  _363
REMARK  149  A    between atoms: _363  and  _364
REMARK  150  A    between atoms: _363  and  _366
REMARK  151  A    between atoms: _366  and  _367
REMARK  152  A    between atoms: _370  and  _372
REMARK  153  A    between atoms: _372  and  _373
REMARK  154  A    between atoms: _372  and  _375
REMARK  155  A    between atoms: _378  and  _380
REMARK  156  A    between atoms: _380  and  _381
REMARK  157  A    between atoms: _380  and  _383
REMARK  158  A    between atoms: _383  and  _384
REMARK  159  A    between atoms: _387  and  _389
REMARK  160  A    between atoms: _389  and  _390
REMARK  161  A    between atoms: _392  and  _394
REMARK  162  A    between atoms: _394  and  _395
REMARK  163  A    between atoms: _397  and  _399
REMARK  164  A    between atoms: _399  and  _400
REMARK  165  A    between atoms: _399  and  _402
REMARK  166  A    between atoms: _402  and  _403
REMARK  167  A    between atoms: _406  and  _408
REMARK  168  A    between atoms: _408  and  _409
REMARK  169  A    between atoms: _411  and  _413
REMARK  170  A    between atoms: _413  and  _414
REMARK  171  A    between atoms: _416  and  _418
REMARK  172  A    between atoms: _418  and  _419
REMARK  173  A    between atoms: _418  and  _421
REMARK  174  A    between atoms: _421  and  _422
REMARK  175  A    between atoms: _425  and  _427
REMARK  176  A    between atoms: _427  and  _428
REMARK  177  A    between atoms: _427  and  _430
REMARK  178  A    between atoms: _430  and  _431
REMARK  179  A    between atoms: _434  and  _436
REMARK  180  A    between atoms: _436  and  _437
REMARK  181  A    between atoms: _436  and  _439
REMARK  182  A    between atoms: _439  and  _440
REMARK  183  A    between atoms: _444  and  _445
REMARK  184  A    between atoms: _450  and  _452
REMARK  185  A    between atoms: _452  and  _453
REMARK  186  A    between atoms: _452  and  _455
REMARK  187  A    between atoms: _458  and  _460
REMARK  188  A    between atoms: _460  and  _461
REMARK  189  A    between atoms: _460  and  _463
REMARK  190  A    between atoms: _463  and  _464
REMARK  191  A    between atoms: _469  and  _471
REMARK  192  A    between atoms: _471  and  _472
REMARK  193  A    between atoms: _471  and  _474
REMARK  194  A    between atoms: _474  and  _475
REMARK  195  A    between atoms: _478  and  _480
REMARK  196  A    between atoms: _480  and  _481
REMARK  197  A    between atoms: _480  and  _483
REMARK  198  A    between atoms: _483  and  _484
REMARK  199  A    between atoms: _487  and  _489
REMARK  200  A    between atoms: _489  and  _490
REMARK  201  A    between atoms: _492  and  _494
REMARK  202  A    between atoms: _494  and  _495
REMARK  203  A    between atoms: _494  and  _497
REMARK  204  A    between atoms: _497  and  _498
REMARK  205  A    between atoms: _498  and  _499
REMARK  206  A    between atoms: _499  and  _500
REMARK  207  A    between atoms: _509  and  _511
REMARK  208  A    between atoms: _511  and  _512
REMARK  209  A    between atoms: _511  and  _514
REMARK  210  A    between atoms: _514  and  _515
REMARK                            x       y       z     vdW  Elec       q    Type
REMARK                         _______ _______ _______ _____ _____    ______ ____
ROOT
ATOM      1  NE  ARG A   1     -21.947   8.828  -6.212  0.00  0.00    -0.265 N 
ATOM      2  CZ  ARG A   1     -20.817   8.284  -5.731  0.00  0.00    +0.342 C 
ATOM      3  NH2 ARG A   1     -20.683   7.996  -4.422  0.00  0.00    -0.292 N 
ATOM      4 HH21 ARG A   1     -21.463   8.195  -3.763  0.00  0.00    +0.255 HD
ATOM      5 HH22 ARG A   1     -19.800   7.575  -4.070  0.00  0.00    +0.255 HD
ATOM      6  NH1 ARG A   1     -19.803   8.052  -6.576  0.00  0.00    -0.292 N 
ATOM      7 HH11 ARG A   1     -18.919   7.631  -6.225  0.00  0.00    +0.255 HD
ATOM      8 HH12 ARG A   1     -19.900   8.292  -7.583  0.00  0.00    +0.255 HD
ATOM      9  HE  ARG A   1     -21.982   9.036  -7.230  0.00  0.00    +0.259 HD
ENDROOT
BRANCH   1  10
ATOM     10  CD  ARG A   1     -23.136   9.153  -5.416  0.00  0.00    +0.174 C 
BRANCH  10  11
ATOM     11  CG  ARG A   1     -24.378   8.375  -5.845  0.00  0.00    +0.045 C 
BRANCH  11  12
ATOM     12  CB  ARG A   1     -25.566   8.857  -5.018  0.00  0.00    +0.029 C 
BRANCH  12  13
ATOM     13  CA  ARG A   1     -26.891   8.249  -5.414  0.00  0.00    +0.133 C 
BRANCH  13  14
ATOM     14  N   ARG A   1     -27.327   8.709  -6.755  0.00  0.00    -0.239 NA
ATOM     15  H   ARG A   1     -26.739   9.362  -7.311  0.00  0.00    +0.142 HD
ENDBRANCH  13  14
BRANCH  13  16
ATOM     16  C   ARG A   1     -27.894   8.678  -4.361  0.00  0.00    +0.224 C 
ATOM     17  O   ARG A   1     -28.422   9.812  -4.434  0.00  0.00    -0.287 OA
ENDBRANCH  13  16
ENDBRANCH  12  13
ENDBRANCH  11  12
ENDBRANCH  10  11
ENDBRANCH   1  10
TORSDOF 6
REMARK  Name = ../refined-set-2016/4i8z/4i8z_pocket.pdb
REMARK  210 active torsions:
REMARK  status: ('A' for Active; 'I' for Inactive)
REMARK    1  A    between atoms: _1  and  _3
REMARK    2  A    between atoms: _3  and  _4
REMARK    3  A    between atoms: _3  and  _6
REMARK    4  A    between atoms: _6  and  _7
REMARK    5  A    between atoms: _7  and  _8
REMARK    6  A    between atoms: _8  and  _9
REMARK    7  A    between atoms: _18  and  _20
REMARK    8  A    between atoms: _20  and  _21
REMARK    9  A    between atoms: _20  and  _23
REMARK   10  A    between atoms: _23  and  _24
REMARK   11  A    between atoms: _27  and  _29
REMARK   12  A    between atoms: _29  and  _30
REMARK   13  A    between atoms: _29  and  _32
REMARK   14  A    between atoms: _32  and  _33
REMARK   15  A    between atoms: _36  and  _38
REMARK   16  A    between atoms: _38  and  _39
REMARK   17  A    between atoms: _38  and  _41
REMARK   18  A    between atoms: _41  and  _42
REMARK   19  A    between atoms: _45  and  _47
REMARK   20  A    between atoms: _47  and  _48
REMARK   21  A    between atoms: _47  and  _50
REMARK   22  A    between atoms: _50  and  _51
REMARK   23  A    between atoms: _54  and  _56
REMARK   24  A    between atoms: _56  and  _57
REMARK   25  A    between atoms: _59  and  _61
REMARK   26  A    between atoms: _61  and  _62
REMARK   27  A    between atoms: _65  and  _67
REMARK   28  A    between atoms: _67  and  _68
REMARK   29  A    between atoms: _67  and  _70
REMARK   30  A    between atoms: _70  and  _71
REMARK   31  A    between atoms: _74  and  _76
REMARK   32  A    between atoms: _76  and  _77
REMARK   33  A    between atoms: _76  and  _79
REMARK   34  A    between atoms: _79  and  _80
REMARK   35  A    between atoms: _83  and  _85
REMARK   36  A    between atoms: _85  and  _86
REMARK   37  A    between atoms: _85  and  _88
REMARK   38  A    between atoms: _88  and  _89
REMARK   39  A    between atoms: _92  and  _94
REMARK   40  A    between atoms: _94  and  _95
REMARK   41  A    between atoms: _94  and  _97
REMARK   42  A    between atoms: _100  and  _102
REMARK   43  A    between atoms: _102  and  _103
REMARK   44  A    between atoms: _102  and  _105
REMARK   45  A    between atoms: _105  and  _106
REMARK   46  A    between atoms: _106  and  _107
REMARK   47  A    between atoms: _107  and  _108
REMARK   48  A    between atoms: _108  and  _109
REMARK   49  A    between atoms: _113  and  _115
REMARK   50  A    between atoms: _115  and  _116
REMARK   51  A    between atoms: _115  and  _118
REMARK   52  A    between atoms: _118  and  _119
REMARK   53  A    between atoms: _119  and  _120
REMARK   54  A    between atoms: _122  and  _124
REMARK   55  A    between atoms: _124  and  _125
REMARK   56  A    between atoms: _124  and  _127
REMARK   57  A    between atoms: _127  and  _128
REMARK   58  A    between atoms: _131  and  _133
REMARK   59  A    between atoms: _133  and  _134
REMARK   60  A    between atoms: _136  and  _138
REMARK   61  A    between atoms: _138  and  _139
REMARK   62  A    between atoms: _141  and  _143
REMARK   63  A    between atoms: _143  and  _144
REMARK   64  A    between atoms: _143  and  _146
REMARK   65  A    between atoms: _146  and  _147
REMARK   66  A    between atoms: _150  and  _152
REMARK   67  A    between atoms: _152  and  _153
REMARK   68  A    between atoms: _155  and  _157
REMARK   69  A    between atoms: _157  and  _158
REMARK   70  A    between atoms: _160  and  _162
REMARK   71  A    between atoms: _162  and  _163
REMARK   72  A    between atoms: _162  and  _165
REMARK   73  A    between atoms: _165  and  _166
REMARK   74  A    between atoms: _169  and  _171
REMARK   75  A    between atoms: _171  and  _172
REMARK   76  A    between atoms: _171  and  _174
REMARK   77  A    between atoms: _177  and  _179
REMARK   78  A    between atoms: _179  and  _180
REMARK   79  A    between atoms: _179  and  _182
REMARK   80  A    between atoms: _182  and  _183
REMARK   81  A    between atoms: _187  and  _188
REMARK   82  A    between atoms: _193  and  _195
REMARK   83  A    between atoms: _195  and  _196
REMARK   84  A    between atoms: _195  and  _198
REMARK   85  A    between atoms: _198  and  _199
REMARK   86  A    between atoms: _203  and  _204
REMARK   87  A    between atoms: _209  and  _211
REMARK   88  A    between atoms: _211  and  _212
REMARK   89  A    between atoms: _211  and  _214
REMARK   90  A    between atoms: _217  and  _219
REMARK   91  A    between atoms: _219  and  _220
REMARK   92  A    between atoms: _219  and  _222
REMARK   93  A    between atoms: _222  and  _223
REMARK   94  A    between atoms: _228  and  _230
REMARK   95  A    between atoms: _230  and  _231
REMARK   96  A    between atoms: _230  and  _233
REMARK   97  A    between atoms: _233  and  _234
REMARK   98  A    between atoms: _237  and  _239
REMARK   99  A    between atoms: _239  and  _240
REMARK  100  A    between atoms: _239  and  _242
REMARK  101  A    between atoms: _242  and  _243
REMARK  102  A    between atoms: _246  and  _248
REMARK  103  A    between atoms: _248  and  _249
REMARK  104  A    between atoms: _251  and  _253
REMARK  105  A    between atoms: _253  and  _254
REMARK  106  A    between atoms: _253  and  _256
REMARK  107  A    between atoms: _256  and  _257
REMARK  108  A    between atoms: _257  and  _258
REMARK  109  A    between atoms: _258  and  _259
REMARK  110  A    between atoms: _268  and  _270
REMARK  111  A    between atoms: _270  and  _271
REMARK  112  A    between atoms: _270  and  _273
REMARK  113  A    between atoms: _273  and  _274
REMARK  114  A    between atoms: _279  and  _281
REMARK  115  A    between atoms: _281  and  _282
REMARK  116  A    between atoms: _281  and  _284
REMARK  117  A    between atoms: _284  and  _285
REMARK  118  A    between atoms: _285  and  _286
REMARK  119  A    between atoms: _286  and  _287
REMARK  120  A    between atoms: _296  and  _298
REMARK  121  A    between atoms: _298  and  _299
REMARK  122  A    between atoms: _298  and  _301
REMARK  123  A    between atoms: _301  and  _302
REMARK  124  A    between atoms: _305  and  _307
REMARK  125  A    between atoms: _307  and  _308
REMARK  126  A    between atoms: _307  and  _310
REMARK  127  A    between atoms: _310  and  _311
REMARK  128  A    between atoms: _314  and  _316
REMARK  129  A    between atoms: _316  and  _317
REMARK  130  A    between atoms: _316  and  _319
REMARK  131  A    between atoms: _319  and  _320
REMARK  132  A    between atoms: _323  and  _325
REMARK  133  A    between atoms: _325  and  _326
REMARK  134  A    between atoms: _325  and  _328
REMARK  135  A    between atoms: _328  and  _329
REMARK  136  A    between atoms: _332  and  _334
REMARK  137  A    between atoms: _334  and  _335
REMARK  138  A    between atoms: _337  and  _339
REMARK  139  A    between atoms: _339  and  _340
REMARK  140  A    between atoms: _343  and  _345
REMARK  141  A    between atoms: _345  and  _346
REMARK  142  A    between atoms: _345  and  _348
REMARK  143  A    between atoms: _348  and  _349
REMARK  144  A    between atoms: _352  and  _354
REMARK  145  A    between atoms: _354  and  _355
REMARK  146  A    between atoms: _354  and  _357
REMARK  147  A    between atoms: _357  and  _358
REMARK  148  A    between atoms: _361  and  _363
REMARK  149  A    between atoms: _363  and  _364
REMARK  150  A    between atoms: _363  and  _366
REMARK  151  A    between atoms: _366  and  _367
REMARK  152  A    between atoms: _370  and  _372
REMARK  153  A    between atoms: _372  and  _373
REMARK  154  A    between atoms: _372  and  _375
REMARK  155  A    between atoms: _378  and  _380
REMARK  156  A    between atoms: _380  and  _381
REMARK  157  A    between atoms: _380  and  _383
REMARK  158  A    between atoms: _383  and  _384
REMARK  159  A    between atoms: _387  and  _389
REMARK  160  A    between atoms: _389  and  _390
REMARK  161  A    between atoms: _392  and  _394
REMARK  162  A    between atoms: _394  and  _395
REMARK  163  A    between atoms: _397  and  _399
REMARK  164  A    between atoms: _399  and  _400
REMARK  165  A    between atoms: _399  and  _402
REMARK  166  A    between atoms: _402  and  _403
REMARK  167  A    between atoms: _406  and  _408
REMARK  168  A    between atoms: _408  and  _409
REMARK  169  A    between atoms: _411  and  _413
REMARK  170  A    between atoms: _413  and  _414
REMARK  171  A    between atoms: _416  and  _418
REMARK  172  A    between atoms: _418  and  _419
REMARK  173  A    between atoms: _418  and  _421
REMARK  174  A    between atoms: _421  and  _422
REMARK  175  A    between atoms: _425  and  _427
REMARK  176  A    between atoms: _427  and  _428
REMARK  177  A    between atoms: _427  and  _430
REMARK  178  A    between atoms: _430  and  _431
REMARK  179  A    between atoms: _434  and  _436
REMARK  180  A    between atoms: _436  and  _437
REMARK  181  A    between atoms: _436  and  _439
REMARK  182  A    between atoms: _439  and  _440
REMARK  183  A    between atoms: _444  and  _445
REMARK  184  A    between atoms: _450  and  _452
REMARK  185  A    between atoms: _452  and  _453
REMARK  186  A    between atoms: _452  and  _455
REMARK  187  A    between atoms: _458  and  _460
REMARK  188  A    between atoms: _460  and  _461
REMARK  189  A    between atoms: _460  and  _463
REMARK  190  A    between atoms: _463  and  _464
REMARK  191  A    between atoms: _469  and  _471
REMARK  192  A    between atoms: _471  and  _472
REMARK  193  A    between atoms: _471  and  _474
REMARK  194  A    between atoms: _474  and  _475
REMARK  195  A    between atoms: _478  and  _480
REMARK  196  A    between atoms: _480  and  _481
REMARK  197  A    between atoms: _480  and  _483
REMARK  198  A    between atoms: _483  and  _484
REMARK  199  A    between atoms: _487  and  _489
REMARK  200  A    between atoms: _489  and  _490
REMARK  201  A    between atoms: _492  and  _494
REMARK  202  A    between atoms: _494  and  _495
REMARK  203  A    between atoms: _494  and  _497
REMARK  204  A    between atoms: _497  and  _498
REMARK  205  A    between atoms: _498  and  _499
REMARK  206  A    between atoms: _499  and  _500
REMARK  207  A    between atoms: _509  and  _511
REMARK  208  A    between atoms: _511  and  _512
REMARK  209  A    between atoms: _511  and  _514
REMARK  210  A    between atoms: _514  and  _515
REMARK                            x       y       z     vdW  Elec       q    Type
REMARK                         _______ _______ _______ _____ _____    ______ ____
ROOT
ATOM      1  C   GLY A   5     -22.830  -2.466   2.597  0.00  0.00    +0.243 C 
ATOM      2  N   ALA A   6     -23.084  -1.494   3.458  0.00  0.00    -0.297 N 
ATOM      3  H   ALA A   6     -23.927  -0.901   3.322  0.00  0.00    +0.150 HD
ATOM      4  O   GLY A   5     -21.814  -3.176   2.702  0.00  0.00    -0.273 OA
ENDROOT
BRANCH   2   5
ATOM      5  CA  ALA A   6     -22.206  -1.237   4.594  0.00  0.00    +0.149 C 
ATOM      6  CB  ALA A   6     -21.977   0.337   4.689  0.00  0.00    +0.031 C 
BRANCH   5   7
ATOM      7  C   ALA A   6     -22.840  -1.727   5.896  0.00  0.00    +0.241 C 
ATOM      8  N   ASP A   7     -22.102  -2.513   6.676  0.00  0.00    -0.297 N 
ATOM      9  H   ASP A   7     -21.133  -2.757   6.387  0.00  0.00    +0.150 HD
ATOM     10  O   ALA A   6     -23.992  -1.393   6.193  0.00  0.00    -0.273 OA
BRANCH   8  11
ATOM     11  CA  ASP A   7     -22.630  -3.036   7.926  0.00  0.00    +0.160 C 
BRANCH  11  12
ATOM     12  C   ASP A   7     -22.805  -1.917   8.929  0.00  0.00    +0.241 C 
ATOM     13  O   ASP A   7     -23.782  -1.892   9.717  0.00  0.00    -0.273 OA
ATOM     14  N   ASP A   8     -21.822  -1.011   8.890  0.00  0.00    -0.297 N 
ATOM     15  H   ASP A   8     -21.119  -1.074   8.126  0.00  0.00    +0.150 HD
BRANCH  14  16
ATOM     16  CA  ASP A   8     -21.690   0.070   9.879  0.00  0.00    +0.160 C 
BRANCH  16  17
ATOM     17  C   ASP A   8     -21.529   1.425   9.202  0.00  0.00    +0.241 C 
ATOM     18  N   THR A   9     -21.714   2.469   9.999  0.00  0.00    -0.295 N 
ATOM     19  H   THR A   9     -21.853   2.314  11.018  0.00  0.00    +0.150 HD
ATOM     20  O   ASP A   8     -21.257   1.519   8.012  0.00  0.00    -0.273 OA
BRANCH  18  21
ATOM     21  CA  THR A   9     -21.727   3.833   9.475  0.00  0.00    +0.176 C 
BRANCH  21  22
ATOM     22  C   THR A   9     -20.318   4.393   9.557  0.00  0.00    +0.243 C 
ATOM     23  O   THR A   9     -19.652   4.193  10.579  0.00  0.00    -0.273 OA
ATOM     24  N   VAL A  10     -19.846   5.040   8.498  0.00  0.00    -0.298 N 
ATOM     25  H   VAL A  10     -20.470   5.239   7.690  0.00  0.00    +0.150 HD
BRANCH  24  26
ATOM     26  CA  VAL A  10     -18.430   5.479   8.465  0.00  0.00    +0.137 C 
BRANCH  26  27
ATOM     27  CB  VAL A  10     -17.495   4.646   7.497  0.00  0.00    +0.026 C 
ATOM     28  CG2 VAL A  10     -16.045   4.988   7.777  0.00  0.00    +0.002 C 
ATOM     29  CG1 VAL A  10     -17.653   3.114   7.705  0.00  0.00    +0.002 C 
ENDBRANCH  26  27
BRANCH  26  30
ATOM     30  C   VAL A  10     -18.444   6.930   7.970  0.00  0.00    +0.227 C 
ATOM     31  O   VAL A  10     -18.917   7.204   6.847  0.00  0.00    -0.286 OA
ENDBRANCH  26  30
ENDBRANCH  24  26
ENDBRANCH  21  22
BRANCH  21  32
ATOM     32  CB  THR A   9     -22.707   4.624  10.334  0.00  0.00    +0.137 C 
ATOM     33  CG2 THR A   9     -22.593   6.218  10.126  0.00  0.00    +0.034 C 
BRANCH  32  34
ATOM     34  OG1 THR A   9     -24.030   4.126  10.082  0.00  0.00    -0.382 OA
ATOM     35  HG1 THR A   9     -24.070   3.165  10.317  0.00  0.00    +0.210 HD
ENDBRANCH  32  34
ENDBRANCH  21  32
ENDBRANCH  18  21
ENDBRANCH  16  17
BRANCH  16  36
ATOM     36  CB  ASP A   8     -20.486  -0.148  10.779  0.00  0.00    +0.143 C 
BRANCH  36  37
ATOM     37  CG  ASP A   8     -20.498  -1.496  11.440  0.00  0.00    +0.367 C 
ATOM     38  OD2 ASP A   8     -21.470  -1.754  12.216  0.00  0.00    -0.246 OA
ATOM     39  OD1 ASP A   8     -19.508  -2.245  11.233  0.00  0.00    -0.246 OA
ENDBRANCH  36  37
ENDBRANCH  16  36
ENDBRANCH  14  16
ENDBRANCH  11  12
BRANCH  11  40
ATOM     40  CB  ASP A   7     -21.638  -4.050   8.559  0.00  0.00    +0.143 C 
BRANCH  40  41
ATOM     41  CG  ASP A   7     -21.438  -5.340   7.712  0.00  0.00    +0.367 C 
ATOM     42  OD2 ASP A   7     -20.457  -6.078   8.048  0.00  0.00    -0.246 OA
ATOM     43  OD1 ASP A   7     -22.234  -5.623   6.764  0.00  0.00    -0.246 OA
ENDBRANCH  40  41
ENDBRANCH  11  40
ENDBRANCH   8  11
ENDBRANCH   5   7
ENDBRANCH   2   5
BRANCH   1  44
ATOM     44  CA  GLY A   5     -23.800  -2.635   1.424  0.00  0.00    +0.176 C 
BRANCH  44  47
ATOM     45  C   THR A   4     -26.023  -2.062   2.173  0.00  0.00    +0.243 C 
ATOM     46  O   THR A   4     -26.114  -3.158   2.848  0.00  0.00    -0.273 OA
ATOM     47  N   GLY A   5     -24.947  -1.725   1.450  0.00  0.00    -0.295 N 
ATOM     48  H   GLY A   5     -24.927  -0.833   0.916  0.00  0.00    +0.150 HD
BRANCH  45  49
ATOM     49  CA  THR A   4     -27.171  -1.079   2.221  0.00  0.00    +0.176 C 
BRANCH  49  52
ATOM     50  C   ASP A   3     -25.899   0.975   2.411  0.00  0.00    +0.241 C 
ATOM     51  O   ASP A   3     -25.402   0.605   3.474  0.00  0.00    -0.273 OA
ATOM     52  N   THR A   4     -26.712   0.198   1.687  0.00  0.00    -0.295 N 
ATOM     53  H   THR A   4     -27.017   0.505   0.741  0.00  0.00    +0.150 HD
BRANCH  50  54
ATOM     54  CA  ASP A   3     -25.608   2.372   1.859  0.00  0.00    +0.160 C 
BRANCH  54  56
ATOM     55  C   LEU A   2     -27.121   4.243   1.705  0.00  0.00    +0.241 C 
ATOM     56  N   ASP A   3     -26.425   3.408   2.496  0.00  0.00    -0.297 N 
ATOM     57  H   ASP A   3     -26.465   3.495   3.532  0.00  0.00    +0.150 HD
ATOM     58  O   LEU A   2     -27.288   4.041   0.467  0.00  0.00    -0.273 OA
BRANCH  55  59
ATOM     59  CA  LEU A   2     -27.684   5.469   2.379  0.00  0.00    +0.149 C 
BRANCH  59  62
ATOM     60  C   LEU A   1     -25.676   6.872   2.105  0.00  0.00    +0.238 C 
ATOM     61  O   LEU A   1     -25.070   6.269   2.999  0.00  0.00    -0.274 OA
ATOM     62  N   LEU A   2     -26.968   6.617   1.820  0.00  0.00    -0.297 N 
ATOM     63  H   LEU A   2     -27.476   7.260   1.179  0.00  0.00    +0.150 HD
BRANCH  60  64
ATOM     64  CA  LEU A   1     -24.987   8.013   1.334  0.00  0.00    +0.145 C 
BRANCH  64  65
ATOM     65  N   LEU A   1     -24.359   8.925   2.259  0.00  0.00    -0.238 NA
ATOM     66  H   LEU A   1     -23.421   8.691   2.644  0.00  0.00    +0.142 HD
ENDBRANCH  64  65
BRANCH  64  67
ATOM     67  CB  LEU A   1     -23.792   7.491   0.459  0.00  0.00    +0.026 C 
BRANCH  67  68
ATOM     68  CG  LEU A   1     -23.949   6.622  -0.775  0.00  0.00    +0.002 C 
ATOM     69  CD2 LEU A   1     -22.541   6.159  -1.178  0.00  0.00    +0.000 C 
ATOM     70  CD1 LEU A   1     -24.639   7.401  -1.866  0.00  0.00    +0.000 C 
ENDBRANCH  67  68
ENDBRANCH  64  67
ENDBRANCH  60  64
ENDBRANCH  59  62
BRANCH  59  71
ATOM     71  CB  LEU A   2     -29.152   5.576   2.121  0.00  0.00    +0.029 C 
BRANCH  71  72
ATOM     72  CG  LEU A   2     -29.837   6.791   2.716  0.00  0.00    +0.002 C 
ATOM     73  CD2 LEU A   2     -29.625   6.919   4.211  0.00  0.00    +0.000 C 
ATOM     74  CD1 LEU A   2     -31.339   6.680   2.335  0.00  0.00    +0.000 C 
ENDBRANCH  71  72
ENDBRANCH  59  71
ENDBRANCH  55  59
ENDBRANCH  54  56
BRANCH  54  75
ATOM     75  CB  ASP A   3     -24.165   2.702   2.140  0.00  0.00    +0.143 C 
BRANCH  75  76
ATOM     76  CG  ASP A   3     -23.226   1.826   1.400  0.00  0.00    +0.367 C 
ATOM     77  OD2 ASP A   3     -22.031   2.112   1.458  0.00  0.00    -0.246 OA
ATOM     78  OD1 ASP A   3     -23.685   0.862   0.722  0.00  0.00    -0.246 OA
ENDBRANCH  75  76
ENDBRANCH  54  75
ENDBRANCH  50  54
ENDBRANCH  49  52
BRANCH  49  79
ATOM     79  CB  THR A   4     -28.337  -1.664   1.398  0.00  0.00    +0.137 C 
ATOM     80  CG2 THR A   4     -29.596  -0.750   1.546  0.00  0.00    +0.034 C 
BRANCH  79  81
ATOM     81  OG1 THR A   4     -27.990  -1.683  -0.021  0.00  0.00    -0.382 OA
ATOM     82  HG1 THR A   4     -27.184  -2.242  -0.155  0.00  0.00    +0.210 HD
ENDBRANCH  79  81
ENDBRANCH  49  79
ENDBRANCH  45  49
ENDBRANCH  44  47
ENDBRANCH   1  44
TORSDOF 35
REMARK  Name = ../refined-set-2016/4i8z/4i8z_pocket.pdb
REMARK  210 active torsions:
REMARK  status: ('A' for Active; 'I' for Inactive)
REMARK    1  A    between atoms: _1  and  _3
REMARK    2  A    between atoms: _3  and  _4
REMARK    3  A    between atoms: _3  and  _6
REMARK    4  A    between atoms: _6  and  _7
REMARK    5  A    between atoms: _7  and  _8
REMARK    6  A    between atoms: _8  and  _9
REMARK    7  A    between atoms: _18  and  _20
REMARK    8  A    between atoms: _20  and  _21
REMARK    9  A    between atoms: _20  and  _23
REMARK   10  A    between atoms: _23  and  _24
REMARK   11  A    between atoms: _27  and  _29
REMARK   12  A    between atoms: _29  and  _30
REMARK   13  A    between atoms: _29  and  _32
REMARK   14  A    between atoms: _32  and  _33
REMARK   15  A    between atoms: _36  and  _38
REMARK   16  A    between atoms: _38  and  _39
REMARK   17  A    between atoms: _38  and  _41
REMARK   18  A    between atoms: _41  and  _42
REMARK   19  A    between atoms: _45  and  _47
REMARK   20  A    between atoms: _47  and  _48
REMARK   21  A    between atoms: _47  and  _50
REMARK   22  A    between atoms: _50  and  _51
REMARK   23  A    between atoms: _54  and  _56
REMARK   24  A    between atoms: _56  and  _57
REMARK   25  A    between atoms: _59  and  _61
REMARK   26  A    between atoms: _61  and  _62
REMARK   27  A    between atoms: _65  and  _67
REMARK   28  A    between atoms: _67  and  _68
REMARK   29  A    between atoms: _67  and  _70
REMARK   30  A    between atoms: _70  and  _71
REMARK   31  A    between atoms: _74  and  _76
REMARK   32  A    between atoms: _76  and  _77
REMARK   33  A    between atoms: _76  and  _79
REMARK   34  A    between atoms: _79  and  _80
REMARK   35  A    between atoms: _83  and  _85
REMARK   36  A    between atoms: _85  and  _86
REMARK   37  A    between atoms: _85  and  _88
REMARK   38  A    between atoms: _88  and  _89
REMARK   39  A    between atoms: _92  and  _94
REMARK   40  A    between atoms: _94  and  _95
REMARK   41  A    between atoms: _94  and  _97
REMARK   42  A    between atoms: _100  and  _102
REMARK   43  A    between atoms: _102  and  _103
REMARK   44  A    between atoms: _102  and  _105
REMARK   45  A    between atoms: _105  and  _106
REMARK   46  A    between atoms: _106  and  _107
REMARK   47  A    between atoms: _107  and  _108
REMARK   48  A    between atoms: _108  and  _109
REMARK   49  A    between atoms: _113  and  _115
REMARK   50  A    between atoms: _115  and  _116
REMARK   51  A    between atoms: _115  and  _118
REMARK   52  A    between atoms: _118  and  _119
REMARK   53  A    between atoms: _119  and  _120
REMARK   54  A    between atoms: _122  and  _124
REMARK   55  A    between atoms: _124  and  _125
REMARK   56  A    between atoms: _124  and  _127
REMARK   57  A    between atoms: _127  and  _128
REMARK   58  A    between atoms: _131  and  _133
REMARK   59  A    between atoms: _133  and  _134
REMARK   60  A    between atoms: _136  and  _138
REMARK   61  A    between atoms: _138  and  _139
REMARK   62  A    between atoms: _141  and  _143
REMARK   63  A    between atoms: _143  and  _144
REMARK   64  A    between atoms: _143  and  _146
REMARK   65  A    between atoms: _146  and  _147
REMARK   66  A    between atoms: _150  and  _152
REMARK   67  A    between atoms: _152  and  _153
REMARK   68  A    between atoms: _155  and  _157
REMARK   69  A    between atoms: _157  and  _158
REMARK   70  A    between atoms: _160  and  _162
REMARK   71  A    between atoms: _162  and  _163
REMARK   72  A    between atoms: _162  and  _165
REMARK   73  A    between atoms: _165  and  _166
REMARK   74  A    between atoms: _169  and  _171
REMARK   75  A    between atoms: _171  and  _172
REMARK   76  A    between atoms: _171  and  _174
REMARK   77  A    between atoms: _177  and  _179
REMARK   78  A    between atoms: _179  and  _180
REMARK   79  A    between atoms: _179  and  _182
REMARK   80  A    between atoms: _182  and  _183
REMARK   81  A    between atoms: _187  and  _188
REMARK   82  A    between atoms: _193  and  _195
REMARK   83  A    between atoms: _195  and  _196
REMARK   84  A    between atoms: _195  and  _198
REMARK   85  A    between atoms: _198  and  _199
REMARK   86  A    between atoms: _203  and  _204
REMARK   87  A    between atoms: _209  and  _211
REMARK   88  A    between atoms: _211  and  _212
REMARK   89  A    between atoms: _211  and  _214
REMARK   90  A    between atoms: _217  and  _219
REMARK   91  A    between atoms: _219  and  _220
REMARK   92  A    between atoms: _219  and  _222
REMARK   93  A    between atoms: _222  and  _223
REMARK   94  A    between atoms: _228  and  _230
REMARK   95  A    between atoms: _230  and  _231
REMARK   96  A    between atoms: _230  and  _233
REMARK   97  A    between atoms: _233  and  _234
REMARK   98  A    between atoms: _237  and  _239
REMARK   99  A    between atoms: _239  and  _240
REMARK  100  A    between atoms: _239  and  _242
REMARK  101  A    between atoms: _242  and  _243
REMARK  102  A    between atoms: _246  and  _248
REMARK  103  A    between atoms: _248  and  _249
REMARK  104  A    between atoms: _251  and  _253
REMARK  105  A    between atoms: _253  and  _254
REMARK  106  A    between atoms: _253  and  _256
REMARK  107  A    between atoms: _256  and  _257
REMARK  108  A    between atoms: _257  and  _258
REMARK  109  A    between atoms: _258  and  _259
REMARK  110  A    between atoms: _268  and  _270
REMARK  111  A    between atoms: _270  and  _271
REMARK  112  A    between atoms: _270  and  _273
REMARK  113  A    between atoms: _273  and  _274
REMARK  114  A    between atoms: _279  and  _281
REMARK  115  A    between atoms: _281  and  _282
REMARK  116  A    between atoms: _281  and  _284
REMARK  117  A    between atoms: _284  and  _285
REMARK  118  A    between atoms: _285  and  _286
REMARK  119  A    between atoms: _286  and  _287
REMARK  120  A    between atoms: _296  and  _298
REMARK  121  A    between atoms: _298  and  _299
REMARK  122  A    between atoms: _298  and  _301
REMARK  123  A    between atoms: _301  and  _302
REMARK  124  A    between atoms: _305  and  _307
REMARK  125  A    between atoms: _307  and  _308
REMARK  126  A    between atoms: _307  and  _310
REMARK  127  A    between atoms: _310  and  _311
REMARK  128  A    between atoms: _314  and  _316
REMARK  129  A    between atoms: _316  and  _317
REMARK  130  A    between atoms: _316  and  _319
REMARK  131  A    between atoms: _319  and  _320
REMARK  132  A    between atoms: _323  and  _325
REMARK  133  A    between atoms: _325  and  _326
REMARK  134  A    between atoms: _325  and  _328
REMARK  135  A    between atoms: _328  and  _329
REMARK  136  A    between atoms: _332  and  _334
REMARK  137  A    between atoms: _334  and  _335
REMARK  138  A    between atoms: _337  and  _339
REMARK  139  A    between atoms: _339  and  _340
REMARK  140  A    between atoms: _343  and  _345
REMARK  141  A    between atoms: _345  and  _346
REMARK  142  A    between atoms: _345  and  _348
REMARK  143  A    between atoms: _348  and  _349
REMARK  144  A    between atoms: _352  and  _354
REMARK  145  A    between atoms: _354  and  _355
REMARK  146  A    between atoms: _354  and  _357
REMARK  147  A    between atoms: _357  and  _358
REMARK  148  A    between atoms: _361  and  _363
REMARK  149  A    between atoms: _363  and  _364
REMARK  150  A    between atoms: _363  and  _366
REMARK  151  A    between atoms: _366  and  _367
REMARK  152  A    between atoms: _370  and  _372
REMARK  153  A    between atoms: _372  and  _373
REMARK  154  A    between atoms: _372  and  _375
REMARK  155  A    between atoms: _378  and  _380
REMARK  156  A    between atoms: _380  and  _381
REMARK  157  A    between atoms: _380  and  _383
REMARK  158  A    between atoms: _383  and  _384
REMARK  159  A    between atoms: _387  and  _389
REMARK  160  A    between atoms: _389  and  _390
REMARK  161  A    between atoms: _392  and  _394
REMARK  162  A    between atoms: _394  and  _395
REMARK  163  A    between atoms: _397  and  _399
REMARK  164  A    between atoms: _399  and  _400
REMARK  165  A    between atoms: _399  and  _402
REMARK  166  A    between atoms: _402  and  _403
REMARK  167  A    between atoms: _406  and  _408
REMARK  168  A    between atoms: _408  and  _409
REMARK  169  A    between atoms: _411  and  _413
REMARK  170  A    between atoms: _413  and  _414
REMARK  171  A    between atoms: _416  and  _418
REMARK  172  A    between atoms: _418  and  _419
REMARK  173  A    between atoms: _418  and  _421
REMARK  174  A    between atoms: _421  and  _422
REMARK  175  A    between atoms: _425  and  _427
REMARK  176  A    between atoms: _427  and  _428
REMARK  177  A    between atoms: _427  and  _430
REMARK  178  A    between atoms: _430  and  _431
REMARK  179  A    between atoms: _434  and  _436
REMARK  180  A    between atoms: _436  and  _437
REMARK  181  A    between atoms: _436  and  _439
REMARK  182  A    between atoms: _439  and  _440
REMARK  183  A    between atoms: _444  and  _445
REMARK  184  A    between atoms: _450  and  _452
REMARK  185  A    between atoms: _452  and  _453
REMARK  186  A    between atoms: _452  and  _455
REMARK  187  A    between atoms: _458  and  _460
REMARK  188  A    between atoms: _460  and  _461
REMARK  189  A    between atoms: _460  and  _463
REMARK  190  A    between atoms: _463  and  _464
REMARK  191  A    between atoms: _469  and  _471
REMARK  192  A    between atoms: _471  and  _472
REMARK  193  A    between atoms: _471  and  _474
REMARK  194  A    between atoms: _474  and  _475
REMARK  195  A    between atoms: _478  and  _480
REMARK  196  A    between atoms: _480  and  _481
REMARK  197  A    between atoms: _480  and  _483
REMARK  198  A    between atoms: _483  and  _484
REMARK  199  A    between atoms: _487  and  _489
REMARK  200  A    between atoms: _489  and  _490
REMARK  201  A    between atoms: _492  and  _494
REMARK  202  A    between atoms: _494  and  _495
REMARK  203  A    between atoms: _494  and  _497
REMARK  204  A    between atoms: _497  and  _498
REMARK  205  A    between atoms: _498  and  _499
REMARK  206  A    between atoms: _499  and  _500
REMARK  207  A    between atoms: _509  and  _511
REMARK  208  A    between atoms: _511  and  _512
REMARK  209  A    between atoms: _511  and  _514
REMARK  210  A    between atoms: _514  and  _515
REMARK                            x       y       z     vdW  Elec       q    Type
REMARK                         _______ _______ _______ _____ _____    ______ ____
ROOT
ATOM      1  C   ILE A   3     -11.978  -1.833   7.136  0.00  0.00    +0.241 C 
ATOM      2  O   ILE A   3     -11.163  -1.050   6.617  0.00  0.00    -0.273 OA
ATOM      3  N   GLY A   4     -12.460  -2.884   6.501  0.00  0.00    -0.295 N 
ATOM      4  H   GLY A   4     -13.168  -3.492   6.961  0.00  0.00    +0.150 HD
ENDROOT
BRANCH   1   5
ATOM      5  CA  ILE A   3     -12.404  -1.682   8.597  0.00  0.00    +0.149 C 
BRANCH   5   8
ATOM      6  C   MET A   2     -10.987  -1.883  10.557  0.00  0.00    +0.241 C 
ATOM      7  O   MET A   2     -11.601  -2.905  10.916  0.00  0.00    -0.273 OA
ATOM      8  N   ILE A   3     -11.321  -1.205   9.447  0.00  0.00    -0.297 N 
ATOM      9  H   ILE A   3     -10.806  -0.338   9.194  0.00  0.00    +0.150 HD
BRANCH   6  10
ATOM     10  CA  MET A   2      -9.780  -1.415  11.341  0.00  0.00    +0.149 C 
BRANCH  10  13
ATOM     11  C   LYS A   1     -10.018  -0.151  13.433  0.00  0.00    +0.238 C 
ATOM     12  O   LYS A   1      -9.636   0.907  12.930  0.00  0.00    -0.274 OA
ATOM     13  N   MET A   2     -10.035  -1.311  12.782  0.00  0.00    -0.297 N 
ATOM     14  H   MET A   2     -10.237  -2.180  13.317  0.00  0.00    +0.150 HD
BRANCH  11  15
ATOM     15  CA  LYS A   1     -10.520  -0.163  14.869  0.00  0.00    +0.145 C 
BRANCH  15  16
ATOM     16  N   LYS A   1     -10.023   1.003  15.546  0.00  0.00    -0.238 NA
ATOM     17  H   LYS A   1      -9.823   1.869  15.006  0.00  0.00    +0.142 HD
ENDBRANCH  15  16
BRANCH  15  18
ATOM     18  CB  LYS A   1     -12.041  -0.087  14.850  0.00  0.00    +0.026 C 
BRANCH  18  19
ATOM     19  CG  LYS A   1     -12.677  -1.419  14.671  0.00  0.00    -0.000 C 
BRANCH  19  20
ATOM     20  CD  LYS A   1     -14.181  -1.356  14.714  0.00  0.00    -0.024 C 
BRANCH  20  21
ATOM     21  CE  LYS A   1     -14.692  -2.740  15.004  0.00  0.00    -0.086 C 
BRANCH  21  22
ATOM     22  NZ  LYS A   1     -13.757  -3.427  15.974  0.00  0.00    +0.380 N 
ATOM     23  HZ1 LYS A   1     -13.713  -2.880  16.857  0.00  0.00    -0.089 HD
ATOM     24  HZ2 LYS A   1     -14.110  -4.384  16.175  0.00  0.00    -0.089 HD
ATOM     25  HZ3 LYS A   1     -12.807  -3.487  15.554  0.00  0.00    -0.089 HD
ENDBRANCH  21  22
ENDBRANCH  20  21
ENDBRANCH  19  20
ENDBRANCH  18  19
ENDBRANCH  15  18
ENDBRANCH  11  15
ENDBRANCH  10  13
BRANCH  10  26
ATOM     26  CB  MET A   2      -8.679  -2.431  11.102  0.00  0.00    +0.041 C 
BRANCH  26  27
ATOM     27  CG  MET A   2      -7.678  -1.940  10.145  0.00  0.00    +0.060 C 
BRANCH  27  28
ATOM     28  SD  MET A   2      -6.506  -0.838  10.909  0.00  0.00    -0.139 S 
ATOM     29  CE  MET A   2      -5.471  -2.051  11.700  0.00  0.00    +0.069 C 
ENDBRANCH  27  28
ENDBRANCH  26  27
ENDBRANCH  10  26
ENDBRANCH   6  10
ENDBRANCH   5   8
BRANCH   5  30
ATOM     30  CB  ILE A   3     -13.671  -0.812   8.697  0.00  0.00    +0.027 C 
ATOM     31  CG2 ILE A   3     -14.083  -0.671  10.166  0.00  0.00    +0.002 C 
BRANCH  30  32
ATOM     32  CG1 ILE A   3     -13.420   0.548   8.064  0.00  0.00    +0.002 C 
ATOM     33  CD1 ILE A   3     -14.651   1.343   7.987  0.00  0.00    +0.000 C 
ENDBRANCH  30  32
ENDBRANCH   5  30
ENDBRANCH   1   5
BRANCH   3  34
ATOM     34  CA  GLY A   4     -12.002  -3.188   5.165  0.00  0.00    +0.176 C 
BRANCH  34  35
ATOM     35  C   GLY A   4     -13.088  -2.966   4.126  0.00  0.00    +0.243 C 
ATOM     36  O   GLY A   4     -14.261  -3.258   4.312  0.00  0.00    -0.273 OA
ATOM     37  N   GLY A   5     -12.689  -2.500   2.965  0.00  0.00    -0.295 N 
ATOM     38  H   GLY A   5     -11.703  -2.202   2.822  0.00  0.00    +0.150 HD
BRANCH  37  39
ATOM     39  CA  GLY A   5     -13.645  -2.411   1.899  0.00  0.00    +0.176 C 
BRANCH  39  40
ATOM     40  C   GLY A   5     -12.986  -2.764   0.611  0.00  0.00    +0.243 C 
ATOM     41  O   GLY A   5     -11.996  -3.496   0.584  0.00  0.00    -0.273 OA
ATOM     42  N   ILE A   6     -13.515  -2.203  -0.470  0.00  0.00    -0.297 N 
ATOM     43  H   ILE A   6     -14.266  -1.489  -0.381  0.00  0.00    +0.150 HD
BRANCH  42  44
ATOM     44  CA  ILE A   6     -13.032  -2.599  -1.766  0.00  0.00    +0.149 C 
BRANCH  44  45
ATOM     45  C   ILE A   6     -11.520  -2.634  -1.987  0.00  0.00    +0.241 C 
ATOM     46  N   GLY A   7     -10.794  -1.585  -1.630  0.00  0.00    -0.295 N 
ATOM     47  H   GLY A   7     -11.226  -0.779  -1.134  0.00  0.00    +0.150 HD
ATOM     48  O   ILE A   6     -11.002  -3.659  -2.490  0.00  0.00    -0.273 OA
BRANCH  46  49
ATOM     49  CA  GLY A   7      -9.375  -1.592  -1.951  0.00  0.00    +0.176 C 
BRANCH  49  50
ATOM     50  C   GLY A   7      -8.394  -1.785  -0.775  0.00  0.00    +0.243 C 
ATOM     51  N   GLY A   8      -8.914  -2.333   0.315  0.00  0.00    -0.296 N 
ATOM     52  H   GLY A   8      -9.931  -2.548   0.337  0.00  0.00    +0.150 HD
ATOM     53  O   GLY A   7      -7.177  -1.449  -0.836  0.00  0.00    -0.273 OA
BRANCH  51  54
ATOM     54  CA  GLY A   8      -8.105  -2.640   1.475  0.00  0.00    +0.163 C 
BRANCH  54  55
ATOM     55  C   GLY A   8      -8.786  -2.082   2.686  0.00  0.00    +0.229 C 
ATOM     56  O   GLY A   8     -10.013  -2.019   2.759  0.00  0.00    -0.286 OA
ENDBRANCH  54  55
ENDBRANCH  51  54
ENDBRANCH  49  50
ENDBRANCH  46  49
ENDBRANCH  44  45
BRANCH  44  57
ATOM     57  CB  ILE A   6     -13.805  -1.924  -2.927  0.00  0.00    +0.027 C 
ATOM     58  CG2 ILE A   6     -12.931  -1.053  -3.789  0.00  0.00    +0.002 C 
BRANCH  57  59
ATOM     59  CG1 ILE A   6     -14.374  -3.059  -3.771  0.00  0.00    +0.002 C 
ATOM     60  CD1 ILE A   6     -15.330  -2.608  -4.894  0.00  0.00    +0.000 C 
ENDBRANCH  57  59
ENDBRANCH  44  57
ENDBRANCH  42  44
ENDBRANCH  39  40
ENDBRANCH  37  39
ENDBRANCH  34  35
ENDBRANCH   3  34
TORSDOF 28
REMARK  Name = ../refined-set-2016/4i8z/4i8z_pocket.pdb
REMARK  210 active torsions:
REMARK  status: ('A' for Active; 'I' for Inactive)
REMARK    1  A    between atoms: _1  and  _3
REMARK    2  A    between atoms: _3  and  _4
REMARK    3  A    between atoms: _3  and  _6
REMARK    4  A    between atoms: _6  and  _7
REMARK    5  A    between atoms: _7  and  _8
REMARK    6  A    between atoms: _8  and  _9
REMARK    7  A    between atoms: _18  and  _20
REMARK    8  A    between atoms: _20  and  _21
REMARK    9  A    between atoms: _20  and  _23
REMARK   10  A    between atoms: _23  and  _24
REMARK   11  A    between atoms: _27  and  _29
REMARK   12  A    between atoms: _29  and  _30
REMARK   13  A    between atoms: _29  and  _32
REMARK   14  A    between atoms: _32  and  _33
REMARK   15  A    between atoms: _36  and  _38
REMARK   16  A    between atoms: _38  and  _39
REMARK   17  A    between atoms: _38  and  _41
REMARK   18  A    between atoms: _41  and  _42
REMARK   19  A    between atoms: _45  and  _47
REMARK   20  A    between atoms: _47  and  _48
REMARK   21  A    between atoms: _47  and  _50
REMARK   22  A    between atoms: _50  and  _51
REMARK   23  A    between atoms: _54  and  _56
REMARK   24  A    between atoms: _56  and  _57
REMARK   25  A    between atoms: _59  and  _61
REMARK   26  A    between atoms: _61  and  _62
REMARK   27  A    between atoms: _65  and  _67
REMARK   28  A    between atoms: _67  and  _68
REMARK   29  A    between atoms: _67  and  _70
REMARK   30  A    between atoms: _70  and  _71
REMARK   31  A    between atoms: _74  and  _76
REMARK   32  A    between atoms: _76  and  _77
REMARK   33  A    between atoms: _76  and  _79
REMARK   34  A    between atoms: _79  and  _80
REMARK   35  A    between atoms: _83  and  _85
REMARK   36  A    between atoms: _85  and  _86
REMARK   37  A    between atoms: _85  and  _88
REMARK   38  A    between atoms: _88  and  _89
REMARK   39  A    between atoms: _92  and  _94
REMARK   40  A    between atoms: _94  and  _95
REMARK   41  A    between atoms: _94  and  _97
REMARK   42  A    between atoms: _100  and  _102
REMARK   43  A    between atoms: _102  and  _103
REMARK   44  A    between atoms: _102  and  _105
REMARK   45  A    between atoms: _105  and  _106
REMARK   46  A    between atoms: _106  and  _107
REMARK   47  A    between atoms: _107  and  _108
REMARK   48  A    between atoms: _108  and  _109
REMARK   49  A    between atoms: _113  and  _115
REMARK   50  A    between atoms: _115  and  _116
REMARK   51  A    between atoms: _115  and  _118
REMARK   52  A    between atoms: _118  and  _119
REMARK   53  A    between atoms: _119  and  _120
REMARK   54  A    between atoms: _122  and  _124
REMARK   55  A    between atoms: _124  and  _125
REMARK   56  A    between atoms: _124  and  _127
REMARK   57  A    between atoms: _127  and  _128
REMARK   58  A    between atoms: _131  and  _133
REMARK   59  A    between atoms: _133  and  _134
REMARK   60  A    between atoms: _136  and  _138
REMARK   61  A    between atoms: _138  and  _139
REMARK   62  A    between atoms: _141  and  _143
REMARK   63  A    between atoms: _143  and  _144
REMARK   64  A    between atoms: _143  and  _146
REMARK   65  A    between atoms: _146  and  _147
REMARK   66  A    between atoms: _150  and  _152
REMARK   67  A    between atoms: _152  and  _153
REMARK   68  A    between atoms: _155  and  _157
REMARK   69  A    between atoms: _157  and  _158
REMARK   70  A    between atoms: _160  and  _162
REMARK   71  A    between atoms: _162  and  _163
REMARK   72  A    between atoms: _162  and  _165
REMARK   73  A    between atoms: _165  and  _166
REMARK   74  A    between atoms: _169  and  _171
REMARK   75  A    between atoms: _171  and  _172
REMARK   76  A    between atoms: _171  and  _174
REMARK   77  A    between atoms: _177  and  _179
REMARK   78  A    between atoms: _179  and  _180
REMARK   79  A    between atoms: _179  and  _182
REMARK   80  A    between atoms: _182  and  _183
REMARK   81  A    between atoms: _187  and  _188
REMARK   82  A    between atoms: _193  and  _195
REMARK   83  A    between atoms: _195  and  _196
REMARK   84  A    between atoms: _195  and  _198
REMARK   85  A    between atoms: _198  and  _199
REMARK   86  A    between atoms: _203  and  _204
REMARK   87  A    between atoms: _209  and  _211
REMARK   88  A    between atoms: _211  and  _212
REMARK   89  A    between atoms: _211  and  _214
REMARK   90  A    between atoms: _217  and  _219
REMARK   91  A    between atoms: _219  and  _220
REMARK   92  A    between atoms: _219  and  _222
REMARK   93  A    between atoms: _222  and  _223
REMARK   94  A    between atoms: _228  and  _230
REMARK   95  A    between atoms: _230  and  _231
REMARK   96  A    between atoms: _230  and  _233
REMARK   97  A    between atoms: _233  and  _234
REMARK   98  A    between atoms: _237  and  _239
REMARK   99  A    between atoms: _239  and  _240
REMARK  100  A    between atoms: _239  and  _242
REMARK  101  A    between atoms: _242  and  _243
REMARK  102  A    between atoms: _246  and  _248
REMARK  103  A    between atoms: _248  and  _249
REMARK  104  A    between atoms: _251  and  _253
REMARK  105  A    between atoms: _253  and  _254
REMARK  106  A    between atoms: _253  and  _256
REMARK  107  A    between atoms: _256  and  _257
REMARK  108  A    between atoms: _257  and  _258
REMARK  109  A    between atoms: _258  and  _259
REMARK  110  A    between atoms: _268  and  _270
REMARK  111  A    between atoms: _270  and  _271
REMARK  112  A    between atoms: _270  and  _273
REMARK  113  A    between atoms: _273  and  _274
REMARK  114  A    between atoms: _279  and  _281
REMARK  115  A    between atoms: _281  and  _282
REMARK  116  A    between atoms: _281  and  _284
REMARK  117  A    between atoms: _284  and  _285
REMARK  118  A    between atoms: _285  and  _286
REMARK  119  A    between atoms: _286  and  _287
REMARK  120  A    between atoms: _296  and  _298
REMARK  121  A    between atoms: _298  and  _299
REMARK  122  A    between atoms: _298  and  _301
REMARK  123  A    between atoms: _301  and  _302
REMARK  124  A    between atoms: _305  and  _307
REMARK  125  A    between atoms: _307  and  _308
REMARK  126  A    between atoms: _307  and  _310
REMARK  127  A    between atoms: _310  and  _311
REMARK  128  A    between atoms: _314  and  _316
REMARK  129  A    between atoms: _316  and  _317
REMARK  130  A    between atoms: _316  and  _319
REMARK  131  A    between atoms: _319  and  _320
REMARK  132  A    between atoms: _323  and  _325
REMARK  133  A    between atoms: _325  and  _326
REMARK  134  A    between atoms: _325  and  _328
REMARK  135  A    between atoms: _328  and  _329
REMARK  136  A    between atoms: _332  and  _334
REMARK  137  A    between atoms: _334  and  _335
REMARK  138  A    between atoms: _337  and  _339
REMARK  139  A    between atoms: _339  and  _340
REMARK  140  A    between atoms: _343  and  _345
REMARK  141  A    between atoms: _345  and  _346
REMARK  142  A    between atoms: _345  and  _348
REMARK  143  A    between atoms: _348  and  _349
REMARK  144  A    between atoms: _352  and  _354
REMARK  145  A    between atoms: _354  and  _355
REMARK  146  A    between atoms: _354  and  _357
REMARK  147  A    between atoms: _357  and  _358
REMARK  148  A    between atoms: _361  and  _363
REMARK  149  A    between atoms: _363  and  _364
REMARK  150  A    between atoms: _363  and  _366
REMARK  151  A    between atoms: _366  and  _367
REMARK  152  A    between atoms: _370  and  _372
REMARK  153  A    between atoms: _372  and  _373
REMARK  154  A    between atoms: _372  and  _375
REMARK  155  A    between atoms: _378  and  _380
REMARK  156  A    between atoms: _380  and  _381
REMARK  157  A    between atoms: _380  and  _383
REMARK  158  A    between atoms: _383  and  _384
REMARK  159  A    between atoms: _387  and  _389
REMARK  160  A    between atoms: _389  and  _390
REMARK  161  A    between atoms: _392  and  _394
REMARK  162  A    between atoms: _394  and  _395
REMARK  163  A    between atoms: _397  and  _399
REMARK  164  A    between atoms: _399  and  _400
REMARK  165  A    between atoms: _399  and  _402
REMARK  166  A    between atoms: _402  and  _403
REMARK  167  A    between atoms: _406  and  _408
REMARK  168  A    between atoms: _408  and  _409
REMARK  169  A    between atoms: _411  and  _413
REMARK  170  A    between atoms: _413  and  _414
REMARK  171  A    between atoms: _416  and  _418
REMARK  172  A    between atoms: _418  and  _419
REMARK  173  A    between atoms: _418  and  _421
REMARK  174  A    between atoms: _421  and  _422
REMARK  175  A    between atoms: _425  and  _427
REMARK  176  A    between atoms: _427  and  _428
REMARK  177  A    between atoms: _427  and  _430
REMARK  178  A    between atoms: _430  and  _431
REMARK  179  A    between atoms: _434  and  _436
REMARK  180  A    between atoms: _436  and  _437
REMARK  181  A    between atoms: _436  and  _439
REMARK  182  A    between atoms: _439  and  _440
REMARK  183  A    between atoms: _444  and  _445
REMARK  184  A    between atoms: _450  and  _452
REMARK  185  A    between atoms: _452  and  _453
REMARK  186  A    between atoms: _452  and  _455
REMARK  187  A    between atoms: _458  and  _460
REMARK  188  A    between atoms: _460  and  _461
REMARK  189  A    between atoms: _460  and  _463
REMARK  190  A    between atoms: _463  and  _464
REMARK  191  A    between atoms: _469  and  _471
REMARK  192  A    between atoms: _471  and  _472
REMARK  193  A    between atoms: _471  and  _474
REMARK  194  A    between atoms: _474  and  _475
REMARK  195  A    between atoms: _478  and  _480
REMARK  196  A    between atoms: _480  and  _481
REMARK  197  A    between atoms: _480  and  _483
REMARK  198  A    between atoms: _483  and  _484
REMARK  199  A    between atoms: _487  and  _489
REMARK  200  A    between atoms: _489  and  _490
REMARK  201  A    between atoms: _492  and  _494
REMARK  202  A    between atoms: _494  and  _495
REMARK  203  A    between atoms: _494  and  _497
REMARK  204  A    between atoms: _497  and  _498
REMARK  205  A    between atoms: _498  and  _499
REMARK  206  A    between atoms: _499  and  _500
REMARK  207  A    between atoms: _509  and  _511
REMARK  208  A    between atoms: _511  and  _512
REMARK  209  A    between atoms: _511  and  _514
REMARK  210  A    between atoms: _514  and  _515
REMARK                            x       y       z     vdW  Elec       q    Type
REMARK                         _______ _______ _______ _____ _____    ______ ____
ROOT
ATOM      1  CA  ILE A   1      -8.574   2.062   6.757  0.00  0.00    +0.133 C 
ENDROOT
BRANCH   1   2
ATOM      2  N   ILE A   1      -8.959   0.803   6.145  0.00  0.00    -0.239 NA
ATOM      3  H   ILE A   1      -9.861   0.353   6.401  0.00  0.00    +0.142 HD
ENDBRANCH   1   2
BRANCH   1   4
ATOM      4  C   ILE A   1      -8.653   1.921   8.284  0.00  0.00    +0.224 C 
ATOM      5  O   ILE A   1      -9.409   1.079   8.783  0.00  0.00    -0.287 OA
ENDBRANCH   1   4
BRANCH   1   6
ATOM      6  CB  ILE A   1      -9.512   3.233   6.302  0.00  0.00    +0.023 C 
ATOM      7  CG2 ILE A   1      -9.339   3.470   4.795  0.00  0.00    +0.002 C 
BRANCH   6   8
ATOM      8  CG1 ILE A   1     -10.968   2.911   6.651  0.00  0.00    +0.002 C 
ATOM      9  CD1 ILE A   1     -11.929   4.159   6.600  0.00  0.00    +0.000 C 
ENDBRANCH   6   8
ENDBRANCH   1   6
TORSDOF 4
REMARK  Name = ../refined-set-2016/4i8z/4i8z_pocket.pdb
REMARK  210 active torsions:
REMARK  status: ('A' for Active; 'I' for Inactive)
REMARK    1  A    between atoms: _1  and  _3
REMARK    2  A    between atoms: _3  and  _4
REMARK    3  A    between atoms: _3  and  _6
REMARK    4  A    between atoms: _6  and  _7
REMARK    5  A    between atoms: _7  and  _8
REMARK    6  A    between atoms: _8  and  _9
REMARK    7  A    between atoms: _18  and  _20
REMARK    8  A    between atoms: _20  and  _21
REMARK    9  A    between atoms: _20  and  _23
REMARK   10  A    between atoms: _23  and  _24
REMARK   11  A    between atoms: _27  and  _29
REMARK   12  A    between atoms: _29  and  _30
REMARK   13  A    between atoms: _29  and  _32
REMARK   14  A    between atoms: _32  and  _33
REMARK   15  A    between atoms: _36  and  _38
REMARK   16  A    between atoms: _38  and  _39
REMARK   17  A    between atoms: _38  and  _41
REMARK   18  A    between atoms: _41  and  _42
REMARK   19  A    between atoms: _45  and  _47
REMARK   20  A    between atoms: _47  and  _48
REMARK   21  A    between atoms: _47  and  _50
REMARK   22  A    between atoms: _50  and  _51
REMARK   23  A    between atoms: _54  and  _56
REMARK   24  A    between atoms: _56  and  _57
REMARK   25  A    between atoms: _59  and  _61
REMARK   26  A    between atoms: _61  and  _62
REMARK   27  A    between atoms: _65  and  _67
REMARK   28  A    between atoms: _67  and  _68
REMARK   29  A    between atoms: _67  and  _70
REMARK   30  A    between atoms: _70  and  _71
REMARK   31  A    between atoms: _74  and  _76
REMARK   32  A    between atoms: _76  and  _77
REMARK   33  A    between atoms: _76  and  _79
REMARK   34  A    between atoms: _79  and  _80
REMARK   35  A    between atoms: _83  and  _85
REMARK   36  A    between atoms: _85  and  _86
REMARK   37  A    between atoms: _85  and  _88
REMARK   38  A    between atoms: _88  and  _89
REMARK   39  A    between atoms: _92  and  _94
REMARK   40  A    between atoms: _94  and  _95
REMARK   41  A    between atoms: _94  and  _97
REMARK   42  A    between atoms: _100  and  _102
REMARK   43  A    between atoms: _102  and  _103
REMARK   44  A    between atoms: _102  and  _105
REMARK   45  A    between atoms: _105  and  _106
REMARK   46  A    between atoms: _106  and  _107
REMARK   47  A    between atoms: _107  and  _108
REMARK   48  A    between atoms: _108  and  _109
REMARK   49  A    between atoms: _113  and  _115
REMARK   50  A    between atoms: _115  and  _116
REMARK   51  A    between atoms: _115  and  _118
REMARK   52  A    between atoms: _118  and  _119
REMARK   53  A    between atoms: _119  and  _120
REMARK   54  A    between atoms: _122  and  _124
REMARK   55  A    between atoms: _124  and  _125
REMARK   56  A    between atoms: _124  and  _127
REMARK   57  A    between atoms: _127  and  _128
REMARK   58  A    between atoms: _131  and  _133
REMARK   59  A    between atoms: _133  and  _134
REMARK   60  A    between atoms: _136  and  _138
REMARK   61  A    between atoms: _138  and  _139
REMARK   62  A    between atoms: _141  and  _143
REMARK   63  A    between atoms: _143  and  _144
REMARK   64  A    between atoms: _143  and  _146
REMARK   65  A    between atoms: _146  and  _147
REMARK   66  A    between atoms: _150  and  _152
REMARK   67  A    between atoms: _152  and  _153
REMARK   68  A    between atoms: _155  and  _157
REMARK   69  A    between atoms: _157  and  _158
REMARK   70  A    between atoms: _160  and  _162
REMARK   71  A    between atoms: _162  and  _163
REMARK   72  A    between atoms: _162  and  _165
REMARK   73  A    between atoms: _165  and  _166
REMARK   74  A    between atoms: _169  and  _171
REMARK   75  A    between atoms: _171  and  _172
REMARK   76  A    between atoms: _171  and  _174
REMARK   77  A    between atoms: _177  and  _179
REMARK   78  A    between atoms: _179  and  _180
REMARK   79  A    between atoms: _179  and  _182
REMARK   80  A    between atoms: _182  and  _183
REMARK   81  A    between atoms: _187  and  _188
REMARK   82  A    between atoms: _193  and  _195
REMARK   83  A    between atoms: _195  and  _196
REMARK   84  A    between atoms: _195  and  _198
REMARK   85  A    between atoms: _198  and  _199
REMARK   86  A    between atoms: _203  and  _204
REMARK   87  A    between atoms: _209  and  _211
REMARK   88  A    between atoms: _211  and  _212
REMARK   89  A    between atoms: _211  and  _214
REMARK   90  A    between atoms: _217  and  _219
REMARK   91  A    between atoms: _219  and  _220
REMARK   92  A    between atoms: _219  and  _222
REMARK   93  A    between atoms: _222  and  _223
REMARK   94  A    between atoms: _228  and  _230
REMARK   95  A    between atoms: _230  and  _231
REMARK   96  A    between atoms: _230  and  _233
REMARK   97  A    between atoms: _233  and  _234
REMARK   98  A    between atoms: _237  and  _239
REMARK   99  A    between atoms: _239  and  _240
REMARK  100  A    between atoms: _239  and  _242
REMARK  101  A    between atoms: _242  and  _243
REMARK  102  A    between atoms: _246  and  _248
REMARK  103  A    between atoms: _248  and  _249
REMARK  104  A    between atoms: _251  and  _253
REMARK  105  A    between atoms: _253  and  _254
REMARK  106  A    between atoms: _253  and  _256
REMARK  107  A    between atoms: _256  and  _257
REMARK  108  A    between atoms: _257  and  _258
REMARK  109  A    between atoms: _258  and  _259
REMARK  110  A    between atoms: _268  and  _270
REMARK  111  A    between atoms: _270  and  _271
REMARK  112  A    between atoms: _270  and  _273
REMARK  113  A    between atoms: _273  and  _274
REMARK  114  A    between atoms: _279  and  _281
REMARK  115  A    between atoms: _281  and  _282
REMARK  116  A    between atoms: _281  and  _284
REMARK  117  A    between atoms: _284  and  _285
REMARK  118  A    between atoms: _285  and  _286
REMARK  119  A    between atoms: _286  and  _287
REMARK  120  A    between atoms: _296  and  _298
REMARK  121  A    between atoms: _298  and  _299
REMARK  122  A    between atoms: _298  and  _301
REMARK  123  A    between atoms: _301  and  _302
REMARK  124  A    between atoms: _305  and  _307
REMARK  125  A    between atoms: _307  and  _308
REMARK  126  A    between atoms: _307  and  _310
REMARK  127  A    between atoms: _310  and  _311
REMARK  128  A    between atoms: _314  and  _316
REMARK  129  A    between atoms: _316  and  _317
REMARK  130  A    between atoms: _316  and  _319
REMARK  131  A    between atoms: _319  and  _320
REMARK  132  A    between atoms: _323  and  _325
REMARK  133  A    between atoms: _325  and  _326
REMARK  134  A    between atoms: _325  and  _328
REMARK  135  A    between atoms: _328  and  _329
REMARK  136  A    between atoms: _332  and  _334
REMARK  137  A    between atoms: _334  and  _335
REMARK  138  A    between atoms: _337  and  _339
REMARK  139  A    between atoms: _339  and  _340
REMARK  140  A    between atoms: _343  and  _345
REMARK  141  A    between atoms: _345  and  _346
REMARK  142  A    between atoms: _345  and  _348
REMARK  143  A    between atoms: _348  and  _349
REMARK  144  A    between atoms: _352  and  _354
REMARK  145  A    between atoms: _354  and  _355
REMARK  146  A    between atoms: _354  and  _357
REMARK  147  A    between atoms: _357  and  _358
REMARK  148  A    between atoms: _361  and  _363
REMARK  149  A    between atoms: _363  and  _364
REMARK  150  A    between atoms: _363  and  _366
REMARK  151  A    between atoms: _366  and  _367
REMARK  152  A    between atoms: _370  and  _372
REMARK  153  A    between atoms: _372  and  _373
REMARK  154  A    between atoms: _372  and  _375
REMARK  155  A    between atoms: _378  and  _380
REMARK  156  A    between atoms: _380  and  _381
REMARK  157  A    between atoms: _380  and  _383
REMARK  158  A    between atoms: _383  and  _384
REMARK  159  A    between atoms: _387  and  _389
REMARK  160  A    between atoms: _389  and  _390
REMARK  161  A    between atoms: _392  and  _394
REMARK  162  A    between atoms: _394  and  _395
REMARK  163  A    between atoms: _397  and  _399
REMARK  164  A    between atoms: _399  and  _400
REMARK  165  A    between atoms: _399  and  _402
REMARK  166  A    between atoms: _402  and  _403
REMARK  167  A    between atoms: _406  and  _408
REMARK  168  A    between atoms: _408  and  _409
REMARK  169  A    between atoms: _411  and  _413
REMARK  170  A    between atoms: _413  and  _414
REMARK  171  A    between atoms: _416  and  _418
REMARK  172  A    between atoms: _418  and  _419
REMARK  173  A    between atoms: _418  and  _421
REMARK  174  A    between atoms: _421  and  _422
REMARK  175  A    between atoms: _425  and  _427
REMARK  176  A    between atoms: _427  and  _428
REMARK  177  A    between atoms: _427  and  _430
REMARK  178  A    between atoms: _430  and  _431
REMARK  179  A    between atoms: _434  and  _436
REMARK  180  A    between atoms: _436  and  _437
REMARK  181  A    between atoms: _436  and  _439
REMARK  182  A    between atoms: _439  and  _440
REMARK  183  A    between atoms: _444  and  _445
REMARK  184  A    between atoms: _450  and  _452
REMARK  185  A    between atoms: _452  and  _453
REMARK  186  A    between atoms: _452  and  _455
REMARK  187  A    between atoms: _458  and  _460
REMARK  188  A    between atoms: _460  and  _461
REMARK  189  A    between atoms: _460  and  _463
REMARK  190  A    between atoms: _463  and  _464
REMARK  191  A    between atoms: _469  and  _471
REMARK  192  A    between atoms: _471  and  _472
REMARK  193  A    between atoms: _471  and  _474
REMARK  194  A    between atoms: _474  and  _475
REMARK  195  A    between atoms: _478  and  _480
REMARK  196  A    between atoms: _480  and  _481
REMARK  197  A    between atoms: _480  and  _483
REMARK  198  A    between atoms: _483  and  _484
REMARK  199  A    between atoms: _487  and  _489
REMARK  200  A    between atoms: _489  and  _490
REMARK  201  A    between atoms: _492  and  _494
REMARK  202  A    between atoms: _494  and  _495
REMARK  203  A    between atoms: _494  and  _497
REMARK  204  A    between atoms: _497  and  _498
REMARK  205  A    between atoms: _498  and  _499
REMARK  206  A    between atoms: _499  and  _500
REMARK  207  A    between atoms: _509  and  _511
REMARK  208  A    between atoms: _511  and  _512
REMARK  209  A    between atoms: _511  and  _514
REMARK  210  A    between atoms: _514  and  _515
REMARK                            x       y       z     vdW  Elec       q    Type
REMARK                         _______ _______ _______ _____ _____    ______ ____
ROOT
ATOM      1  CA  VAL A   1     -11.099   4.390  12.153  0.00  0.00    +0.133 C 
ENDROOT
BRANCH   1   2
ATOM      2  CB  VAL A   1     -12.483   3.922  11.683  0.00  0.00    +0.023 C 
ATOM      3  CG2 VAL A   1     -12.812   2.564  12.231  0.00  0.00    +0.002 C 
ATOM      4  CG1 VAL A   1     -12.590   3.905  10.116  0.00  0.00    +0.002 C 
ENDBRANCH   1   2
BRANCH   1   5
ATOM      5  N   VAL A   1     -10.035   3.472  11.706  0.00  0.00    -0.239 NA
ATOM      6  H   VAL A   1      -9.995   2.509  12.096  0.00  0.00    +0.142 HD
ENDBRANCH   1   5
BRANCH   1   7
ATOM      7  C   VAL A   1     -11.119   4.555  13.686  0.00  0.00    +0.224 C 
ATOM      8  O   VAL A   1     -10.504   3.782  14.431  0.00  0.00    -0.287 OA
ENDBRANCH   1   7
TORSDOF 3
REMARK  Name = ../refined-set-2016/4i8z/4i8z_pocket.pdb
REMARK  210 active torsions:
REMARK  status: ('A' for Active; 'I' for Inactive)
REMARK    1  A    between atoms: _1  and  _3
REMARK    2  A    between atoms: _3  and  _4
REMARK    3  A    between atoms: _3  and  _6
REMARK    4  A    between atoms: _6  and  _7
REMARK    5  A    between atoms: _7  and  _8
REMARK    6  A    between atoms: _8  and  _9
REMARK    7  A    between atoms: _18  and  _20
REMARK    8  A    between atoms: _20  and  _21
REMARK    9  A    between atoms: _20  and  _23
REMARK   10  A    between atoms: _23  and  _24
REMARK   11  A    between atoms: _27  and  _29
REMARK   12  A    between atoms: _29  and  _30
REMARK   13  A    between atoms: _29  and  _32
REMARK   14  A    between atoms: _32  and  _33
REMARK   15  A    between atoms: _36  and  _38
REMARK   16  A    between atoms: _38  and  _39
REMARK   17  A    between atoms: _38  and  _41
REMARK   18  A    between atoms: _41  and  _42
REMARK   19  A    between atoms: _45  and  _47
REMARK   20  A    between atoms: _47  and  _48
REMARK   21  A    between atoms: _47  and  _50
REMARK   22  A    between atoms: _50  and  _51
REMARK   23  A    between atoms: _54  and  _56
REMARK   24  A    between atoms: _56  and  _57
REMARK   25  A    between atoms: _59  and  _61
REMARK   26  A    between atoms: _61  and  _62
REMARK   27  A    between atoms: _65  and  _67
REMARK   28  A    between atoms: _67  and  _68
REMARK   29  A    between atoms: _67  and  _70
REMARK   30  A    between atoms: _70  and  _71
REMARK   31  A    between atoms: _74  and  _76
REMARK   32  A    between atoms: _76  and  _77
REMARK   33  A    between atoms: _76  and  _79
REMARK   34  A    between atoms: _79  and  _80
REMARK   35  A    between atoms: _83  and  _85
REMARK   36  A    between atoms: _85  and  _86
REMARK   37  A    between atoms: _85  and  _88
REMARK   38  A    between atoms: _88  and  _89
REMARK   39  A    between atoms: _92  and  _94
REMARK   40  A    between atoms: _94  and  _95
REMARK   41  A    between atoms: _94  and  _97
REMARK   42  A    between atoms: _100  and  _102
REMARK   43  A    between atoms: _102  and  _103
REMARK   44  A    between atoms: _102  and  _105
REMARK   45  A    between atoms: _105  and  _106
REMARK   46  A    between atoms: _106  and  _107
REMARK   47  A    between atoms: _107  and  _108
REMARK   48  A    between atoms: _108  and  _109
REMARK   49  A    between atoms: _113  and  _115
REMARK   50  A    between atoms: _115  and  _116
REMARK   51  A    between atoms: _115  and  _118
REMARK   52  A    between atoms: _118  and  _119
REMARK   53  A    between atoms: _119  and  _120
REMARK   54  A    between atoms: _122  and  _124
REMARK   55  A    between atoms: _124  and  _125
REMARK   56  A    between atoms: _124  and  _127
REMARK   57  A    between atoms: _127  and  _128
REMARK   58  A    between atoms: _131  and  _133
REMARK   59  A    between atoms: _133  and  _134
REMARK   60  A    between atoms: _136  and  _138
REMARK   61  A    between atoms: _138  and  _139
REMARK   62  A    between atoms: _141  and  _143
REMARK   63  A    between atoms: _143  and  _144
REMARK   64  A    between atoms: _143  and  _146
REMARK   65  A    between atoms: _146  and  _147
REMARK   66  A    between atoms: _150  and  _152
REMARK   67  A    between atoms: _152  and  _153
REMARK   68  A    between atoms: _155  and  _157
REMARK   69  A    between atoms: _157  and  _158
REMARK   70  A    between atoms: _160  and  _162
REMARK   71  A    between atoms: _162  and  _163
REMARK   72  A    between atoms: _162  and  _165
REMARK   73  A    between atoms: _165  and  _166
REMARK   74  A    between atoms: _169  and  _171
REMARK   75  A    between atoms: _171  and  _172
REMARK   76  A    between atoms: _171  and  _174
REMARK   77  A    between atoms: _177  and  _179
REMARK   78  A    between atoms: _179  and  _180
REMARK   79  A    between atoms: _179  and  _182
REMARK   80  A    between atoms: _182  and  _183
REMARK   81  A    between atoms: _187  and  _188
REMARK   82  A    between atoms: _193  and  _195
REMARK   83  A    between atoms: _195  and  _196
REMARK   84  A    between atoms: _195  and  _198
REMARK   85  A    between atoms: _198  and  _199
REMARK   86  A    between atoms: _203  and  _204
REMARK   87  A    between atoms: _209  and  _211
REMARK   88  A    between atoms: _211  and  _212
REMARK   89  A    between atoms: _211  and  _214
REMARK   90  A    between atoms: _217  and  _219
REMARK   91  A    between atoms: _219  and  _220
REMARK   92  A    between atoms: _219  and  _222
REMARK   93  A    between atoms: _222  and  _223
REMARK   94  A    between atoms: _228  and  _230
REMARK   95  A    between atoms: _230  and  _231
REMARK   96  A    between atoms: _230  and  _233
REMARK   97  A    between atoms: _233  and  _234
REMARK   98  A    between atoms: _237  and  _239
REMARK   99  A    between atoms: _239  and  _240
REMARK  100  A    between atoms: _239  and  _242
REMARK  101  A    between atoms: _242  and  _243
REMARK  102  A    between atoms: _246  and  _248
REMARK  103  A    between atoms: _248  and  _249
REMARK  104  A    between atoms: _251  and  _253
REMARK  105  A    between atoms: _253  and  _254
REMARK  106  A    between atoms: _253  and  _256
REMARK  107  A    between atoms: _256  and  _257
REMARK  108  A    between atoms: _257  and  _258
REMARK  109  A    between atoms: _258  and  _259
REMARK  110  A    between atoms: _268  and  _270
REMARK  111  A    between atoms: _270  and  _271
REMARK  112  A    between atoms: _270  and  _273
REMARK  113  A    between atoms: _273  and  _274
REMARK  114  A    between atoms: _279  and  _281
REMARK  115  A    between atoms: _281  and  _282
REMARK  116  A    between atoms: _281  and  _284
REMARK  117  A    between atoms: _284  and  _285
REMARK  118  A    between atoms: _285  and  _286
REMARK  119  A    between atoms: _286  and  _287
REMARK  120  A    between atoms: _296  and  _298
REMARK  121  A    between atoms: _298  and  _299
REMARK  122  A    between atoms: _298  and  _301
REMARK  123  A    between atoms: _301  and  _302
REMARK  124  A    between atoms: _305  and  _307
REMARK  125  A    between atoms: _307  and  _308
REMARK  126  A    between atoms: _307  and  _310
REMARK  127  A    between atoms: _310  and  _311
REMARK  128  A    between atoms: _314  and  _316
REMARK  129  A    between atoms: _316  and  _317
REMARK  130  A    between atoms: _316  and  _319
REMARK  131  A    between atoms: _319  and  _320
REMARK  132  A    between atoms: _323  and  _325
REMARK  133  A    between atoms: _325  and  _326
REMARK  134  A    between atoms: _325  and  _328
REMARK  135  A    between atoms: _328  and  _329
REMARK  136  A    between atoms: _332  and  _334
REMARK  137  A    between atoms: _334  and  _335
REMARK  138  A    between atoms: _337  and  _339
REMARK  139  A    between atoms: _339  and  _340
REMARK  140  A    between atoms: _343  and  _345
REMARK  141  A    between atoms: _345  and  _346
REMARK  142  A    between atoms: _345  and  _348
REMARK  143  A    between atoms: _348  and  _349
REMARK  144  A    between atoms: _352  and  _354
REMARK  145  A    between atoms: _354  and  _355
REMARK  146  A    between atoms: _354  and  _357
REMARK  147  A    between atoms: _357  and  _358
REMARK  148  A    between atoms: _361  and  _363
REMARK  149  A    between atoms: _363  and  _364
REMARK  150  A    between atoms: _363  and  _366
REMARK  151  A    between atoms: _366  and  _367
REMARK  152  A    between atoms: _370  and  _372
REMARK  153  A    between atoms: _372  and  _373
REMARK  154  A    between atoms: _372  and  _375
REMARK  155  A    between atoms: _378  and  _380
REMARK  156  A    between atoms: _380  and  _381
REMARK  157  A    between atoms: _380  and  _383
REMARK  158  A    between atoms: _383  and  _384
REMARK  159  A    between atoms: _387  and  _389
REMARK  160  A    between atoms: _389  and  _390
REMARK  161  A    between atoms: _392  and  _394
REMARK  162  A    between atoms: _394  and  _395
REMARK  163  A    between atoms: _397  and  _399
REMARK  164  A    between atoms: _399  and  _400
REMARK  165  A    between atoms: _399  and  _402
REMARK  166  A    between atoms: _402  and  _403
REMARK  167  A    between atoms: _406  and  _408
REMARK  168  A    between atoms: _408  and  _409
REMARK  169  A    between atoms: _411  and  _413
REMARK  170  A    between atoms: _413  and  _414
REMARK  171  A    between atoms: _416  and  _418
REMARK  172  A    between atoms: _418  and  _419
REMARK  173  A    between atoms: _418  and  _421
REMARK  174  A    between atoms: _421  and  _422
REMARK  175  A    between atoms: _425  and  _427
REMARK  176  A    between atoms: _427  and  _428
REMARK  177  A    between atoms: _427  and  _430
REMARK  178  A    between atoms: _430  and  _431
REMARK  179  A    between atoms: _434  and  _436
REMARK  180  A    between atoms: _436  and  _437
REMARK  181  A    between atoms: _436  and  _439
REMARK  182  A    between atoms: _439  and  _440
REMARK  183  A    between atoms: _444  and  _445
REMARK  184  A    between atoms: _450  and  _452
REMARK  185  A    between atoms: _452  and  _453
REMARK  186  A    between atoms: _452  and  _455
REMARK  187  A    between atoms: _458  and  _460
REMARK  188  A    between atoms: _460  and  _461
REMARK  189  A    between atoms: _460  and  _463
REMARK  190  A    between atoms: _463  and  _464
REMARK  191  A    between atoms: _469  and  _471
REMARK  192  A    between atoms: _471  and  _472
REMARK  193  A    between atoms: _471  and  _474
REMARK  194  A    between atoms: _474  and  _475
REMARK  195  A    between atoms: _478  and  _480
REMARK  196  A    between atoms: _480  and  _481
REMARK  197  A    between atoms: _480  and  _483
REMARK  198  A    between atoms: _483  and  _484
REMARK  199  A    between atoms: _487  and  _489
REMARK  200  A    between atoms: _489  and  _490
REMARK  201  A    between atoms: _492  and  _494
REMARK  202  A    between atoms: _494  and  _495
REMARK  203  A    between atoms: _494  and  _497
REMARK  204  A    between atoms: _497  and  _498
REMARK  205  A    between atoms: _498  and  _499
REMARK  206  A    between atoms: _499  and  _500
REMARK  207  A    between atoms: _509  and  _511
REMARK  208  A    between atoms: _511  and  _512
REMARK  209  A    between atoms: _511  and  _514
REMARK  210  A    between atoms: _514  and  _515
REMARK                            x       y       z     vdW  Elec       q    Type
REMARK                         _______ _______ _______ _____ _____    ______ ____
ROOT
ATOM      1  CA  LEU A   1     -16.789   5.009  12.777  0.00  0.00    +0.133 C 
ENDROOT
BRANCH   1   2
ATOM      2  N   LEU A   1     -18.223   5.128  13.003  0.00  0.00    -0.239 NA
ATOM      3  H   LEU A   1     -18.868   4.924  12.213  0.00  0.00    +0.142 HD
ENDBRANCH   1   2
BRANCH   1   4
ATOM      4  C   LEU A   1     -16.314   6.239  12.041  0.00  0.00    +0.224 C 
ATOM      5  O   LEU A   1     -16.971   6.697  11.082  0.00  0.00    -0.287 OA
ENDBRANCH   1   4
BRANCH   1   6
ATOM      6  CB  LEU A   1     -16.545   3.784  11.890  0.00  0.00    +0.025 C 
BRANCH   6   7
ATOM      7  CG  LEU A   1     -17.164   2.482  12.376  0.00  0.00    +0.002 C 
ATOM      8  CD2 LEU A   1     -16.713   2.171  13.811  0.00  0.00    +0.000 C 
ATOM      9  CD1 LEU A   1     -16.704   1.388  11.407  0.00  0.00    +0.000 C 
ENDBRANCH   6   7
ENDBRANCH   1   6
TORSDOF 4
REMARK  Name = ../refined-set-2016/4i8z/4i8z_pocket.pdb
REMARK  210 active torsions:
REMARK  status: ('A' for Active; 'I' for Inactive)
REMARK    1  A    between atoms: _1  and  _3
REMARK    2  A    between atoms: _3  and  _4
REMARK    3  A    between atoms: _3  and  _6
REMARK    4  A    between atoms: _6  and  _7
REMARK    5  A    between atoms: _7  and  _8
REMARK    6  A    between atoms: _8  and  _9
REMARK    7  A    between atoms: _18  and  _20
REMARK    8  A    between atoms: _20  and  _21
REMARK    9  A    between atoms: _20  and  _23
REMARK   10  A    between atoms: _23  and  _24
REMARK   11  A    between atoms: _27  and  _29
REMARK   12  A    between atoms: _29  and  _30
REMARK   13  A    between atoms: _29  and  _32
REMARK   14  A    between atoms: _32  and  _33
REMARK   15  A    between atoms: _36  and  _38
REMARK   16  A    between atoms: _38  and  _39
REMARK   17  A    between atoms: _38  and  _41
REMARK   18  A    between atoms: _41  and  _42
REMARK   19  A    between atoms: _45  and  _47
REMARK   20  A    between atoms: _47  and  _48
REMARK   21  A    between atoms: _47  and  _50
REMARK   22  A    between atoms: _50  and  _51
REMARK   23  A    between atoms: _54  and  _56
REMARK   24  A    between atoms: _56  and  _57
REMARK   25  A    between atoms: _59  and  _61
REMARK   26  A    between atoms: _61  and  _62
REMARK   27  A    between atoms: _65  and  _67
REMARK   28  A    between atoms: _67  and  _68
REMARK   29  A    between atoms: _67  and  _70
REMARK   30  A    between atoms: _70  and  _71
REMARK   31  A    between atoms: _74  and  _76
REMARK   32  A    between atoms: _76  and  _77
REMARK   33  A    between atoms: _76  and  _79
REMARK   34  A    between atoms: _79  and  _80
REMARK   35  A    between atoms: _83  and  _85
REMARK   36  A    between atoms: _85  and  _86
REMARK   37  A    between atoms: _85  and  _88
REMARK   38  A    between atoms: _88  and  _89
REMARK   39  A    between atoms: _92  and  _94
REMARK   40  A    between atoms: _94  and  _95
REMARK   41  A    between atoms: _94  and  _97
REMARK   42  A    between atoms: _100  and  _102
REMARK   43  A    between atoms: _102  and  _103
REMARK   44  A    between atoms: _102  and  _105
REMARK   45  A    between atoms: _105  and  _106
REMARK   46  A    between atoms: _106  and  _107
REMARK   47  A    between atoms: _107  and  _108
REMARK   48  A    between atoms: _108  and  _109
REMARK   49  A    between atoms: _113  and  _115
REMARK   50  A    between atoms: _115  and  _116
REMARK   51  A    between atoms: _115  and  _118
REMARK   52  A    between atoms: _118  and  _119
REMARK   53  A    between atoms: _119  and  _120
REMARK   54  A    between atoms: _122  and  _124
REMARK   55  A    between atoms: _124  and  _125
REMARK   56  A    between atoms: _124  and  _127
REMARK   57  A    between atoms: _127  and  _128
REMARK   58  A    between atoms: _131  and  _133
REMARK   59  A    between atoms: _133  and  _134
REMARK   60  A    between atoms: _136  and  _138
REMARK   61  A    between atoms: _138  and  _139
REMARK   62  A    between atoms: _141  and  _143
REMARK   63  A    between atoms: _143  and  _144
REMARK   64  A    between atoms: _143  and  _146
REMARK   65  A    between atoms: _146  and  _147
REMARK   66  A    between atoms: _150  and  _152
REMARK   67  A    between atoms: _152  and  _153
REMARK   68  A    between atoms: _155  and  _157
REMARK   69  A    between atoms: _157  and  _158
REMARK   70  A    between atoms: _160  and  _162
REMARK   71  A    between atoms: _162  and  _163
REMARK   72  A    between atoms: _162  and  _165
REMARK   73  A    between atoms: _165  and  _166
REMARK   74  A    between atoms: _169  and  _171
REMARK   75  A    between atoms: _171  and  _172
REMARK   76  A    between atoms: _171  and  _174
REMARK   77  A    between atoms: _177  and  _179
REMARK   78  A    between atoms: _179  and  _180
REMARK   79  A    between atoms: _179  and  _182
REMARK   80  A    between atoms: _182  and  _183
REMARK   81  A    between atoms: _187  and  _188
REMARK   82  A    between atoms: _193  and  _195
REMARK   83  A    between atoms: _195  and  _196
REMARK   84  A    between atoms: _195  and  _198
REMARK   85  A    between atoms: _198  and  _199
REMARK   86  A    between atoms: _203  and  _204
REMARK   87  A    between atoms: _209  and  _211
REMARK   88  A    between atoms: _211  and  _212
REMARK   89  A    between atoms: _211  and  _214
REMARK   90  A    between atoms: _217  and  _219
REMARK   91  A    between atoms: _219  and  _220
REMARK   92  A    between atoms: _219  and  _222
REMARK   93  A    between atoms: _222  and  _223
REMARK   94  A    between atoms: _228  and  _230
REMARK   95  A    between atoms: _230  and  _231
REMARK   96  A    between atoms: _230  and  _233
REMARK   97  A    between atoms: _233  and  _234
REMARK   98  A    between atoms: _237  and  _239
REMARK   99  A    between atoms: _239  and  _240
REMARK  100  A    between atoms: _239  and  _242
REMARK  101  A    between atoms: _242  and  _243
REMARK  102  A    between atoms: _246  and  _248
REMARK  103  A    between atoms: _248  and  _249
REMARK  104  A    between atoms: _251  and  _253
REMARK  105  A    between atoms: _253  and  _254
REMARK  106  A    between atoms: _253  and  _256
REMARK  107  A    between atoms: _256  and  _257
REMARK  108  A    between atoms: _257  and  _258
REMARK  109  A    between atoms: _258  and  _259
REMARK  110  A    between atoms: _268  and  _270
REMARK  111  A    between atoms: _270  and  _271
REMARK  112  A    between atoms: _270  and  _273
REMARK  113  A    between atoms: _273  and  _274
REMARK  114  A    between atoms: _279  and  _281
REMARK  115  A    between atoms: _281  and  _282
REMARK  116  A    between atoms: _281  and  _284
REMARK  117  A    between atoms: _284  and  _285
REMARK  118  A    between atoms: _285  and  _286
REMARK  119  A    between atoms: _286  and  _287
REMARK  120  A    between atoms: _296  and  _298
REMARK  121  A    between atoms: _298  and  _299
REMARK  122  A    between atoms: _298  and  _301
REMARK  123  A    between atoms: _301  and  _302
REMARK  124  A    between atoms: _305  and  _307
REMARK  125  A    between atoms: _307  and  _308
REMARK  126  A    between atoms: _307  and  _310
REMARK  127  A    between atoms: _310  and  _311
REMARK  128  A    between atoms: _314  and  _316
REMARK  129  A    between atoms: _316  and  _317
REMARK  130  A    between atoms: _316  and  _319
REMARK  131  A    between atoms: _319  and  _320
REMARK  132  A    between atoms: _323  and  _325
REMARK  133  A    between atoms: _325  and  _326
REMARK  134  A    between atoms: _325  and  _328
REMARK  135  A    between atoms: _328  and  _329
REMARK  136  A    between atoms: _332  and  _334
REMARK  137  A    between atoms: _334  and  _335
REMARK  138  A    between atoms: _337  and  _339
REMARK  139  A    between atoms: _339  and  _340
REMARK  140  A    between atoms: _343  and  _345
REMARK  141  A    between atoms: _345  and  _346
REMARK  142  A    between atoms: _345  and  _348
REMARK  143  A    between atoms: _348  and  _349
REMARK  144  A    between atoms: _352  and  _354
REMARK  145  A    between atoms: _354  and  _355
REMARK  146  A    between atoms: _354  and  _357
REMARK  147  A    between atoms: _357  and  _358
REMARK  148  A    between atoms: _361  and  _363
REMARK  149  A    between atoms: _363  and  _364
REMARK  150  A    between atoms: _363  and  _366
REMARK  151  A    between atoms: _366  and  _367
REMARK  152  A    between atoms: _370  and  _372
REMARK  153  A    between atoms: _372  and  _373
REMARK  154  A    between atoms: _372  and  _375
REMARK  155  A    between atoms: _378  and  _380
REMARK  156  A    between atoms: _380  and  _381
REMARK  157  A    between atoms: _380  and  _383
REMARK  158  A    between atoms: _383  and  _384
REMARK  159  A    between atoms: _387  and  _389
REMARK  160  A    between atoms: _389  and  _390
REMARK  161  A    between atoms: _392  and  _394
REMARK  162  A    between atoms: _394  and  _395
REMARK  163  A    between atoms: _397  and  _399
REMARK  164  A    between atoms: _399  and  _400
REMARK  165  A    between atoms: _399  and  _402
REMARK  166  A    between atoms: _402  and  _403
REMARK  167  A    between atoms: _406  and  _408
REMARK  168  A    between atoms: _408  and  _409
REMARK  169  A    between atoms: _411  and  _413
REMARK  170  A    between atoms: _413  and  _414
REMARK  171  A    between atoms: _416  and  _418
REMARK  172  A    between atoms: _418  and  _419
REMARK  173  A    between atoms: _418  and  _421
REMARK  174  A    between atoms: _421  and  _422
REMARK  175  A    between atoms: _425  and  _427
REMARK  176  A    between atoms: _427  and  _428
REMARK  177  A    between atoms: _427  and  _430
REMARK  178  A    between atoms: _430  and  _431
REMARK  179  A    between atoms: _434  and  _436
REMARK  180  A    between atoms: _436  and  _437
REMARK  181  A    between atoms: _436  and  _439
REMARK  182  A    between atoms: _439  and  _440
REMARK  183  A    between atoms: _444  and  _445
REMARK  184  A    between atoms: _450  and  _452
REMARK  185  A    between atoms: _452  and  _453
REMARK  186  A    between atoms: _452  and  _455
REMARK  187  A    between atoms: _458  and  _460
REMARK  188  A    between atoms: _460  and  _461
REMARK  189  A    between atoms: _460  and  _463
REMARK  190  A    between atoms: _463  and  _464
REMARK  191  A    between atoms: _469  and  _471
REMARK  192  A    between atoms: _471  and  _472
REMARK  193  A    between atoms: _471  and  _474
REMARK  194  A    between atoms: _474  and  _475
REMARK  195  A    between atoms: _478  and  _480
REMARK  196  A    between atoms: _480  and  _481
REMARK  197  A    between atoms: _480  and  _483
REMARK  198  A    between atoms: _483  and  _484
REMARK  199  A    between atoms: _487  and  _489
REMARK  200  A    between atoms: _489  and  _490
REMARK  201  A    between atoms: _492  and  _494
REMARK  202  A    between atoms: _494  and  _495
REMARK  203  A    between atoms: _494  and  _497
REMARK  204  A    between atoms: _497  and  _498
REMARK  205  A    between atoms: _498  and  _499
REMARK  206  A    between atoms: _499  and  _500
REMARK  207  A    between atoms: _509  and  _511
REMARK  208  A    between atoms: _511  and  _512
REMARK  209  A    between atoms: _511  and  _514
REMARK  210  A    between atoms: _514  and  _515
REMARK                            x       y       z     vdW  Elec       q    Type
REMARK                         _______ _______ _______ _____ _____    ______ ____
ROOT
ATOM      1  CA  ILE A   6     -21.757   6.289   4.515  0.00  0.00    +0.149 C 
ENDROOT
BRANCH   1   3
ATOM      2  C   ASN A   5     -20.873   8.509   3.990  0.00  0.00    +0.241 C 
ATOM      3  N   ILE A   6     -20.908   7.443   4.789  0.00  0.00    -0.297 N 
ATOM      4  H   ILE A   6     -20.308   7.434   5.639  0.00  0.00    +0.150 HD
ATOM      5  O   ASN A   5     -21.652   8.705   3.056  0.00  0.00    -0.273 OA
BRANCH   2   6
ATOM      6  CA  ASN A   5     -19.845   9.560   4.348  0.00  0.00    +0.158 C 
BRANCH   6   8
ATOM      7  C   VAL A   4     -18.243   9.014   2.611  0.00  0.00    +0.241 C 
ATOM      8  N   ASN A   5     -19.078   9.898   3.181  0.00  0.00    -0.297 N 
ATOM      9  H   ASN A   5     -19.172  10.848   2.769  0.00  0.00    +0.150 HD
ATOM     10  O   VAL A   4     -17.936   7.940   3.149  0.00  0.00    -0.273 OA
BRANCH   7  11
ATOM     11  CA  VAL A   4     -17.646   9.334   1.262  0.00  0.00    +0.149 C 
BRANCH  11  13
ATOM     12  C   PRO A   3     -15.277   9.591   0.671  0.00  0.00    +0.241 C 
ATOM     13  N   VAL A   4     -16.234   8.934   1.329  0.00  0.00    -0.297 N 
ATOM     14  H   VAL A   4     -15.972   8.111   1.909  0.00  0.00    +0.150 HD
ATOM     15  O   PRO A   3     -15.452  10.679   0.107  0.00  0.00    -0.273 OA
BRANCH  12  22
ATOM     16  C   THR A   2     -13.606   8.245   2.874  0.00  0.00    +0.246 C 
ATOM     17  O   THR A   2     -13.621   9.440   3.206  0.00  0.00    -0.273 OA
ATOM     18  N   PRO A   3     -13.720   7.851   1.592  0.00  0.00    -0.272 N 
ATOM     19  CD  PRO A   3     -13.400   6.584   0.921  0.00  0.00    +0.094 C 
ATOM     20  CG  PRO A   3     -13.945   6.819  -0.497  0.00  0.00    +0.024 C 
ATOM     21  CB  PRO A   3     -13.720   8.246  -0.748  0.00  0.00    +0.031 C 
ATOM     22  CA  PRO A   3     -13.888   8.948   0.612  0.00  0.00    +0.152 C 
BRANCH  16  23
ATOM     23  CA  THR A   2     -13.463   7.147   3.950  0.00  0.00    +0.176 C 
BRANCH  23  25
ATOM     24  C   PRO A   1     -11.246   7.712   4.877  0.00  0.00    +0.239 C 
ATOM     25  N   THR A   2     -12.578   7.596   5.024  0.00  0.00    -0.295 N 
ATOM     26  H   THR A   2     -12.998   7.837   5.944  0.00  0.00    +0.150 HD
ATOM     27  O   PRO A   1     -10.630   7.326   3.872  0.00  0.00    -0.274 OA
BRANCH  24  32
ATOM     28  N   PRO A   1     -10.668   7.926   7.350  0.00  0.00    -0.210 NA
ATOM     29  CD  PRO A   1      -9.454   7.307   7.934  0.00  0.00    +0.089 C 
ATOM     30  CG  PRO A   1      -8.595   7.025   6.704  0.00  0.00    +0.021 C 
ATOM     31  CB  PRO A   1      -8.923   8.178   5.755  0.00  0.00    +0.028 C 
ATOM     32  CA  PRO A   1     -10.456   8.392   5.966  0.00  0.00    +0.149 C 
ENDBRANCH  24  32
ENDBRANCH  23  25
BRANCH  23  33
ATOM     33  CB  THR A   2     -14.851   6.840   4.514  0.00  0.00    +0.137 C 
ATOM     34  CG2 THR A   2     -15.416   8.066   5.292  0.00  0.00    +0.034 C 
BRANCH  33  35
ATOM     35  OG1 THR A   2     -15.731   6.456   3.455  0.00  0.00    -0.382 OA
ATOM     36  HG1 THR A   2     -16.627   6.259   3.827  0.00  0.00    +0.210 HD
ENDBRANCH  33  35
ENDBRANCH  23  33
ENDBRANCH  16  23
ENDBRANCH  12  22
ENDBRANCH  11  13
BRANCH  11  37
ATOM     37  CB  VAL A   4     -18.349   8.463   0.132  0.00  0.00    +0.027 C 
ATOM     38  CG2 VAL A   4     -19.848   8.622   0.118  0.00  0.00    +0.002 C 
ATOM     39  CG1 VAL A   4     -17.789   8.838  -1.251  0.00  0.00    +0.002 C 
ENDBRANCH  11  37
ENDBRANCH   7  11
ENDBRANCH   6   8
BRANCH   6  40
ATOM     40  CB  ASN A   5     -20.622  10.756   4.890  0.00  0.00    +0.114 C 
BRANCH  40  41
ATOM     41  CG  ASN A   5     -19.718  11.902   5.312  0.00  0.00    +0.222 C 
ATOM     42  OD1 ASN A   5     -18.666  11.679   5.916  0.00  0.00    -0.275 OA
ATOM     43  ND2 ASN A   5     -20.143  13.150   5.008  0.00  0.00    -0.329 N 
ATOM     44 HD21 ASN A   5     -19.574  13.975   5.286  0.00  0.00    +0.145 HD
ATOM     45 HD22 ASN A   5     -21.039  13.284   4.497  0.00  0.00    +0.145 HD
ENDBRANCH  40  41
ENDBRANCH   6  40
ENDBRANCH   2   6
ENDBRANCH   1   3
BRANCH   1  46
ATOM     46  C   ILE A   6     -22.647   6.003   5.703  0.00  0.00    +0.241 C 
ATOM     47  O   ILE A   6     -22.151   5.827   6.824  0.00  0.00    -0.273 OA
ATOM     48  N   ILE A   7     -23.968   5.879   5.483  0.00  0.00    -0.297 N 
ATOM     49  H   ILE A   7     -24.364   6.101   4.547  0.00  0.00    +0.150 HD
BRANCH  48  50
ATOM     50  CA  ILE A   7     -24.854   5.427   6.574  0.00  0.00    +0.149 C 
BRANCH  50  51
ATOM     51  C   ILE A   7     -25.134   3.968   6.379  0.00  0.00    +0.241 C 
ATOM     52  N   GLY A   8     -24.690   3.144   7.329  0.00  0.00    -0.295 N 
ATOM     53  H   GLY A   8     -24.301   3.554   8.202  0.00  0.00    +0.150 HD
ATOM     54  O   ILE A   7     -25.730   3.599   5.357  0.00  0.00    -0.273 OA
BRANCH  52  55
ATOM     55  CA  GLY A   8     -24.728   1.685   7.194  0.00  0.00    +0.176 C 
BRANCH  55  56
ATOM     56  C   GLY A   8     -25.933   1.067   7.855  0.00  0.00    +0.243 C 
ATOM     57  O   GLY A   8     -26.780   1.768   8.427  0.00  0.00    -0.273 OA
ATOM     58  N   ARG A   9     -26.028  -0.270   7.778  0.00  0.00    -0.297 N 
ATOM     59  H   ARG A   9     -25.222  -0.832   7.437  0.00  0.00    +0.150 HD
BRANCH  58  60
ATOM     60  CA  ARG A   9     -27.238  -0.916   8.166  0.00  0.00    +0.149 C 
BRANCH  60  61
ATOM     61  C   ARG A   9     -27.473  -0.735   9.659  0.00  0.00    +0.241 C 
ATOM     62  N   ASN A  10     -26.418  -0.459  10.420  0.00  0.00    -0.298 N 
ATOM     63  H   ASN A  10     -25.478  -0.329   9.995  0.00  0.00    +0.150 HD
ATOM     64  O   ARG A   9     -28.617  -0.779  10.119  0.00  0.00    -0.273 OA
BRANCH  62  65
ATOM     65  CA  ASN A  10     -26.605  -0.342  11.864  0.00  0.00    +0.146 C 
BRANCH  65  66
ATOM     66  C   ASN A  10     -27.551   0.822  12.208  0.00  0.00    +0.227 C 
ATOM     67  O   ASN A  10     -28.251   0.801  13.255  0.00  0.00    -0.286 OA
ENDBRANCH  65  66
BRANCH  65  68
ATOM     68  CB  ASN A  10     -25.281  -0.177  12.577  0.00  0.00    +0.112 C 
BRANCH  68  69
ATOM     69  CG  ASN A  10     -24.681   1.166  12.354  0.00  0.00    +0.222 C 
ATOM     70  ND2 ASN A  10     -24.248   1.824  13.454  0.00  0.00    -0.329 N 
ATOM     71 HD21 ASN A  10     -24.295   1.366  14.386  0.00  0.00    +0.145 HD
ATOM     72 HD22 ASN A  10     -23.868   2.788  13.367  0.00  0.00    +0.145 HD
ATOM     73  OD1 ASN A  10     -24.651   1.649  11.238  0.00  0.00    -0.275 OA
ENDBRANCH  68  69
ENDBRANCH  65  68
ENDBRANCH  62  65
ENDBRANCH  60  61
BRANCH  60  74
ATOM     74  CB  ARG A   9     -27.165  -2.380   7.792  0.00  0.00    +0.033 C 
BRANCH  74  75
ATOM     75  CG  ARG A   9     -27.227  -2.606   6.254  0.00  0.00    +0.045 C 
BRANCH  75  76
ATOM     76  CD  ARG A   9     -27.284  -4.173   5.991  0.00  0.00    +0.174 C 
BRANCH  76  77
ATOM     77  NE  ARG A   9     -26.106  -4.896   6.526  0.00  0.00    -0.265 N 
ATOM     78  CZ  ARG A   9     -26.056  -5.570   7.682  0.00  0.00    +0.342 C 
ATOM     79  NH2 ARG A   9     -27.143  -5.763   8.453  0.00  0.00    -0.292 N 
ATOM     80 HH21 ARG A   9     -27.061  -6.293   9.344  0.00  0.00    +0.255 HD
ATOM     81 HH22 ARG A   9     -28.065  -5.382   8.157  0.00  0.00    +0.255 HD
ATOM     82  NH1 ARG A   9     -24.921  -6.138   8.038  0.00  0.00    -0.292 N 
ATOM     83 HH11 ARG A   9     -24.862  -6.666   8.932  0.00  0.00    +0.255 HD
ATOM     84 HH12 ARG A   9     -24.085  -6.058   7.425  0.00  0.00    +0.255 HD
ATOM     85  HE  ARG A   9     -25.239  -4.878   5.951  0.00  0.00    +0.259 HD
ENDBRANCH  76  77
ENDBRANCH  75  76
ENDBRANCH  74  75
ENDBRANCH  60  74
ENDBRANCH  58  60
ENDBRANCH  55  56
ENDBRANCH  52  55
ENDBRANCH  50  51
BRANCH  50  86
ATOM     86  CB  ILE A   7     -26.231   6.131   6.515  0.00  0.00    +0.027 C 
ATOM     87  CG2 ILE A   7     -27.157   5.666   7.710  0.00  0.00    +0.002 C 
BRANCH  86  88
ATOM     88  CG1 ILE A   7     -26.072   7.658   6.584  0.00  0.00    +0.002 C 
ATOM     89  CD1 ILE A   7     -25.214   8.127   7.768  0.00  0.00    +0.000 C 
ENDBRANCH  86  88
ENDBRANCH  50  86
ENDBRANCH  48  50
ENDBRANCH   1  46
BRANCH   1  90
ATOM     90  CB  ILE A   6     -20.833   4.986   4.461  0.00  0.00    +0.027 C 
ATOM     91  CG2 ILE A   6     -21.683   3.745   4.393  0.00  0.00    +0.002 C 
BRANCH  90  92
ATOM     92  CG1 ILE A   6     -19.829   5.036   3.331  0.00  0.00    +0.002 C 
ATOM     93  CD1 ILE A   6     -20.487   5.358   2.068  0.00  0.00    +0.000 C 
ENDBRANCH  90  92
ENDBRANCH   1  90
TORSDOF 33
REMARK  Name = ../refined-set-2016/4i8z/4i8z_pocket.pdb
REMARK  210 active torsions:
REMARK  status: ('A' for Active; 'I' for Inactive)
REMARK    1  A    between atoms: _1  and  _3
REMARK    2  A    between atoms: _3  and  _4
REMARK    3  A    between atoms: _3  and  _6
REMARK    4  A    between atoms: _6  and  _7
REMARK    5  A    between atoms: _7  and  _8
REMARK    6  A    between atoms: _8  and  _9
REMARK    7  A    between atoms: _18  and  _20
REMARK    8  A    between atoms: _20  and  _21
REMARK    9  A    between atoms: _20  and  _23
REMARK   10  A    between atoms: _23  and  _24
REMARK   11  A    between atoms: _27  and  _29
REMARK   12  A    between atoms: _29  and  _30
REMARK   13  A    between atoms: _29  and  _32
REMARK   14  A    between atoms: _32  and  _33
REMARK   15  A    between atoms: _36  and  _38
REMARK   16  A    between atoms: _38  and  _39
REMARK   17  A    between atoms: _38  and  _41
REMARK   18  A    between atoms: _41  and  _42
REMARK   19  A    between atoms: _45  and  _47
REMARK   20  A    between atoms: _47  and  _48
REMARK   21  A    between atoms: _47  and  _50
REMARK   22  A    between atoms: _50  and  _51
REMARK   23  A    between atoms: _54  and  _56
REMARK   24  A    between atoms: _56  and  _57
REMARK   25  A    between atoms: _59  and  _61
REMARK   26  A    between atoms: _61  and  _62
REMARK   27  A    between atoms: _65  and  _67
REMARK   28  A    between atoms: _67  and  _68
REMARK   29  A    between atoms: _67  and  _70
REMARK   30  A    between atoms: _70  and  _71
REMARK   31  A    between atoms: _74  and  _76
REMARK   32  A    between atoms: _76  and  _77
REMARK   33  A    between atoms: _76  and  _79
REMARK   34  A    between atoms: _79  and  _80
REMARK   35  A    between atoms: _83  and  _85
REMARK   36  A    between atoms: _85  and  _86
REMARK   37  A    between atoms: _85  and  _88
REMARK   38  A    between atoms: _88  and  _89
REMARK   39  A    between atoms: _92  and  _94
REMARK   40  A    between atoms: _94  and  _95
REMARK   41  A    between atoms: _94  and  _97
REMARK   42  A    between atoms: _100  and  _102
REMARK   43  A    between atoms: _102  and  _103
REMARK   44  A    between atoms: _102  and  _105
REMARK   45  A    between atoms: _105  and  _106
REMARK   46  A    between atoms: _106  and  _107
REMARK   47  A    between atoms: _107  and  _108
REMARK   48  A    between atoms: _108  and  _109
REMARK   49  A    between atoms: _113  and  _115
REMARK   50  A    between atoms: _115  and  _116
REMARK   51  A    between atoms: _115  and  _118
REMARK   52  A    between atoms: _118  and  _119
REMARK   53  A    between atoms: _119  and  _120
REMARK   54  A    between atoms: _122  and  _124
REMARK   55  A    between atoms: _124  and  _125
REMARK   56  A    between atoms: _124  and  _127
REMARK   57  A    between atoms: _127  and  _128
REMARK   58  A    between atoms: _131  and  _133
REMARK   59  A    between atoms: _133  and  _134
REMARK   60  A    between atoms: _136  and  _138
REMARK   61  A    between atoms: _138  and  _139
REMARK   62  A    between atoms: _141  and  _143
REMARK   63  A    between atoms: _143  and  _144
REMARK   64  A    between atoms: _143  and  _146
REMARK   65  A    between atoms: _146  and  _147
REMARK   66  A    between atoms: _150  and  _152
REMARK   67  A    between atoms: _152  and  _153
REMARK   68  A    between atoms: _155  and  _157
REMARK   69  A    between atoms: _157  and  _158
REMARK   70  A    between atoms: _160  and  _162
REMARK   71  A    between atoms: _162  and  _163
REMARK   72  A    between atoms: _162  and  _165
REMARK   73  A    between atoms: _165  and  _166
REMARK   74  A    between atoms: _169  and  _171
REMARK   75  A    between atoms: _171  and  _172
REMARK   76  A    between atoms: _171  and  _174
REMARK   77  A    between atoms: _177  and  _179
REMARK   78  A    between atoms: _179  and  _180
REMARK   79  A    between atoms: _179  and  _182
REMARK   80  A    between atoms: _182  and  _183
REMARK   81  A    between atoms: _187  and  _188
REMARK   82  A    between atoms: _193  and  _195
REMARK   83  A    between atoms: _195  and  _196
REMARK   84  A    between atoms: _195  and  _198
REMARK   85  A    between atoms: _198  and  _199
REMARK   86  A    between atoms: _203  and  _204
REMARK   87  A    between atoms: _209  and  _211
REMARK   88  A    between atoms: _211  and  _212
REMARK   89  A    between atoms: _211  and  _214
REMARK   90  A    between atoms: _217  and  _219
REMARK   91  A    between atoms: _219  and  _220
REMARK   92  A    between atoms: _219  and  _222
REMARK   93  A    between atoms: _222  and  _223
REMARK   94  A    between atoms: _228  and  _230
REMARK   95  A    between atoms: _230  and  _231
REMARK   96  A    between atoms: _230  and  _233
REMARK   97  A    between atoms: _233  and  _234
REMARK   98  A    between atoms: _237  and  _239
REMARK   99  A    between atoms: _239  and  _240
REMARK  100  A    between atoms: _239  and  _242
REMARK  101  A    between atoms: _242  and  _243
REMARK  102  A    between atoms: _246  and  _248
REMARK  103  A    between atoms: _248  and  _249
REMARK  104  A    between atoms: _251  and  _253
REMARK  105  A    between atoms: _253  and  _254
REMARK  106  A    between atoms: _253  and  _256
REMARK  107  A    between atoms: _256  and  _257
REMARK  108  A    between atoms: _257  and  _258
REMARK  109  A    between atoms: _258  and  _259
REMARK  110  A    between atoms: _268  and  _270
REMARK  111  A    between atoms: _270  and  _271
REMARK  112  A    between atoms: _270  and  _273
REMARK  113  A    between atoms: _273  and  _274
REMARK  114  A    between atoms: _279  and  _281
REMARK  115  A    between atoms: _281  and  _282
REMARK  116  A    between atoms: _281  and  _284
REMARK  117  A    between atoms: _284  and  _285
REMARK  118  A    between atoms: _285  and  _286
REMARK  119  A    between atoms: _286  and  _287
REMARK  120  A    between atoms: _296  and  _298
REMARK  121  A    between atoms: _298  and  _299
REMARK  122  A    between atoms: _298  and  _301
REMARK  123  A    between atoms: _301  and  _302
REMARK  124  A    between atoms: _305  and  _307
REMARK  125  A    between atoms: _307  and  _308
REMARK  126  A    between atoms: _307  and  _310
REMARK  127  A    between atoms: _310  and  _311
REMARK  128  A    between atoms: _314  and  _316
REMARK  129  A    between atoms: _316  and  _317
REMARK  130  A    between atoms: _316  and  _319
REMARK  131  A    between atoms: _319  and  _320
REMARK  132  A    between atoms: _323  and  _325
REMARK  133  A    between atoms: _325  and  _326
REMARK  134  A    between atoms: _325  and  _328
REMARK  135  A    between atoms: _328  and  _329
REMARK  136  A    between atoms: _332  and  _334
REMARK  137  A    between atoms: _334  and  _335
REMARK  138  A    between atoms: _337  and  _339
REMARK  139  A    between atoms: _339  and  _340
REMARK  140  A    between atoms: _343  and  _345
REMARK  141  A    between atoms: _345  and  _346
REMARK  142  A    between atoms: _345  and  _348
REMARK  143  A    between atoms: _348  and  _349
REMARK  144  A    between atoms: _352  and  _354
REMARK  145  A    between atoms: _354  and  _355
REMARK  146  A    between atoms: _354  and  _357
REMARK  147  A    between atoms: _357  and  _358
REMARK  148  A    between atoms: _361  and  _363
REMARK  149  A    between atoms: _363  and  _364
REMARK  150  A    between atoms: _363  and  _366
REMARK  151  A    between atoms: _366  and  _367
REMARK  152  A    between atoms: _370  and  _372
REMARK  153  A    between atoms: _372  and  _373
REMARK  154  A    between atoms: _372  and  _375
REMARK  155  A    between atoms: _378  and  _380
REMARK  156  A    between atoms: _380  and  _381
REMARK  157  A    between atoms: _380  and  _383
REMARK  158  A    between atoms: _383  and  _384
REMARK  159  A    between atoms: _387  and  _389
REMARK  160  A    between atoms: _389  and  _390
REMARK  161  A    between atoms: _392  and  _394
REMARK  162  A    between atoms: _394  and  _395
REMARK  163  A    between atoms: _397  and  _399
REMARK  164  A    between atoms: _399  and  _400
REMARK  165  A    between atoms: _399  and  _402
REMARK  166  A    between atoms: _402  and  _403
REMARK  167  A    between atoms: _406  and  _408
REMARK  168  A    between atoms: _408  and  _409
REMARK  169  A    between atoms: _411  and  _413
REMARK  170  A    between atoms: _413  and  _414
REMARK  171  A    between atoms: _416  and  _418
REMARK  172  A    between atoms: _418  and  _419
REMARK  173  A    between atoms: _418  and  _421
REMARK  174  A    between atoms: _421  and  _422
REMARK  175  A    between atoms: _425  and  _427
REMARK  176  A    between atoms: _427  and  _428
REMARK  177  A    between atoms: _427  and  _430
REMARK  178  A    between atoms: _430  and  _431
REMARK  179  A    between atoms: _434  and  _436
REMARK  180  A    between atoms: _436  and  _437
REMARK  181  A    between atoms: _436  and  _439
REMARK  182  A    between atoms: _439  and  _440
REMARK  183  A    between atoms: _444  and  _445
REMARK  184  A    between atoms: _450  and  _452
REMARK  185  A    between atoms: _452  and  _453
REMARK  186  A    between atoms: _452  and  _455
REMARK  187  A    between atoms: _458  and  _460
REMARK  188  A    between atoms: _460  and  _461
REMARK  189  A    between atoms: _460  and  _463
REMARK  190  A    between atoms: _463  and  _464
REMARK  191  A    between atoms: _469  and  _471
REMARK  192  A    between atoms: _471  and  _472
REMARK  193  A    between atoms: _471  and  _474
REMARK  194  A    between atoms: _474  and  _475
REMARK  195  A    between atoms: _478  and  _480
REMARK  196  A    between atoms: _480  and  _481
REMARK  197  A    between atoms: _480  and  _483
REMARK  198  A    between atoms: _483  and  _484
REMARK  199  A    between atoms: _487  and  _489
REMARK  200  A    between atoms: _489  and  _490
REMARK  201  A    between atoms: _492  and  _494
REMARK  202  A    between atoms: _494  and  _495
REMARK  203  A    between atoms: _494  and  _497
REMARK  204  A    between atoms: _497  and  _498
REMARK  205  A    between atoms: _498  and  _499
REMARK  206  A    between atoms: _499  and  _500
REMARK  207  A    between atoms: _509  and  _511
REMARK  208  A    between atoms: _511  and  _512
REMARK  209  A    between atoms: _511  and  _514
REMARK  210  A    between atoms: _514  and  _515
REMARK                            x       y       z     vdW  Elec       q    Type
REMARK                         _______ _______ _______ _____ _____    ______ ____
ROOT
ATOM      1  NE  ARG A   1     -21.929  -8.623   5.809  0.00  0.00    -0.265 N 
ATOM      2  CZ  ARG A   1     -21.033  -9.375   6.457  0.00  0.00    +0.342 C 
ATOM      3  NH2 ARG A   1     -20.035  -8.806   7.133  0.00  0.00    -0.292 N 
ATOM      4 HH21 ARG A   1     -19.342  -9.398   7.634  0.00  0.00    +0.255 HD
ATOM      5 HH22 ARG A   1     -19.949  -7.770   7.159  0.00  0.00    +0.255 HD
ATOM      6  NH1 ARG A   1     -21.136 -10.699   6.426  0.00  0.00    -0.292 N 
ATOM      7 HH11 ARG A   1     -20.441 -11.287   6.929  0.00  0.00    +0.255 HD
ATOM      8 HH12 ARG A   1     -21.912 -11.148   5.899  0.00  0.00    +0.255 HD
ATOM      9  HE  ARG A   1     -21.810  -7.591   5.848  0.00  0.00    +0.259 HD
ENDROOT
BRANCH   1  10
ATOM     10  CD  ARG A   1     -23.068  -9.148   5.046  0.00  0.00    +0.174 C 
BRANCH  10  11
ATOM     11  CG  ARG A   1     -24.346  -8.417   5.386  0.00  0.00    +0.045 C 
BRANCH  11  12
ATOM     12  CB  ARG A   1     -25.485  -8.839   4.472  0.00  0.00    +0.029 C 
BRANCH  12  13
ATOM     13  CA  ARG A   1     -26.860  -8.267   4.869  0.00  0.00    +0.133 C 
BRANCH  13  14
ATOM     14  N   ARG A   1     -27.285  -8.763   6.199  0.00  0.00    -0.239 NA
ATOM     15  H   ARG A   1     -26.717  -9.464   6.717  0.00  0.00    +0.142 HD
ENDBRANCH  13  14
BRANCH  13  16
ATOM     16  C   ARG A   1     -27.849  -8.692   3.807  0.00  0.00    +0.224 C 
ATOM     17  O   ARG A   1     -28.356  -9.840   3.848  0.00  0.00    -0.287 OA
ENDBRANCH  13  16
ENDBRANCH  12  13
ENDBRANCH  11  12
ENDBRANCH  10  11
ENDBRANCH   1  10
TORSDOF 6
REMARK  Name = ../refined-set-2016/4i8z/4i8z_pocket.pdb
REMARK  210 active torsions:
REMARK  status: ('A' for Active; 'I' for Inactive)
REMARK    1  A    between atoms: _1  and  _3
REMARK    2  A    between atoms: _3  and  _4
REMARK    3  A    between atoms: _3  and  _6
REMARK    4  A    between atoms: _6  and  _7
REMARK    5  A    between atoms: _7  and  _8
REMARK    6  A    between atoms: _8  and  _9
REMARK    7  A    between atoms: _18  and  _20
REMARK    8  A    between atoms: _20  and  _21
REMARK    9  A    between atoms: _20  and  _23
REMARK   10  A    between atoms: _23  and  _24
REMARK   11  A    between atoms: _27  and  _29
REMARK   12  A    between atoms: _29  and  _30
REMARK   13  A    between atoms: _29  and  _32
REMARK   14  A    between atoms: _32  and  _33
REMARK   15  A    between atoms: _36  and  _38
REMARK   16  A    between atoms: _38  and  _39
REMARK   17  A    between atoms: _38  and  _41
REMARK   18  A    between atoms: _41  and  _42
REMARK   19  A    between atoms: _45  and  _47
REMARK   20  A    between atoms: _47  and  _48
REMARK   21  A    between atoms: _47  and  _50
REMARK   22  A    between atoms: _50  and  _51
REMARK   23  A    between atoms: _54  and  _56
REMARK   24  A    between atoms: _56  and  _57
REMARK   25  A    between atoms: _59  and  _61
REMARK   26  A    between atoms: _61  and  _62
REMARK   27  A    between atoms: _65  and  _67
REMARK   28  A    between atoms: _67  and  _68
REMARK   29  A    between atoms: _67  and  _70
REMARK   30  A    between atoms: _70  and  _71
REMARK   31  A    between atoms: _74  and  _76
REMARK   32  A    between atoms: _76  and  _77
REMARK   33  A    between atoms: _76  and  _79
REMARK   34  A    between atoms: _79  and  _80
REMARK   35  A    between atoms: _83  and  _85
REMARK   36  A    between atoms: _85  and  _86
REMARK   37  A    between atoms: _85  and  _88
REMARK   38  A    between atoms: _88  and  _89
REMARK   39  A    between atoms: _92  and  _94
REMARK   40  A    between atoms: _94  and  _95
REMARK   41  A    between atoms: _94  and  _97
REMARK   42  A    between atoms: _100  and  _102
REMARK   43  A    between atoms: _102  and  _103
REMARK   44  A    between atoms: _102  and  _105
REMARK   45  A    between atoms: _105  and  _106
REMARK   46  A    between atoms: _106  and  _107
REMARK   47  A    between atoms: _107  and  _108
REMARK   48  A    between atoms: _108  and  _109
REMARK   49  A    between atoms: _113  and  _115
REMARK   50  A    between atoms: _115  and  _116
REMARK   51  A    between atoms: _115  and  _118
REMARK   52  A    between atoms: _118  and  _119
REMARK   53  A    between atoms: _119  and  _120
REMARK   54  A    between atoms: _122  and  _124
REMARK   55  A    between atoms: _124  and  _125
REMARK   56  A    between atoms: _124  and  _127
REMARK   57  A    between atoms: _127  and  _128
REMARK   58  A    between atoms: _131  and  _133
REMARK   59  A    between atoms: _133  and  _134
REMARK   60  A    between atoms: _136  and  _138
REMARK   61  A    between atoms: _138  and  _139
REMARK   62  A    between atoms: _141  and  _143
REMARK   63  A    between atoms: _143  and  _144
REMARK   64  A    between atoms: _143  and  _146
REMARK   65  A    between atoms: _146  and  _147
REMARK   66  A    between atoms: _150  and  _152
REMARK   67  A    between atoms: _152  and  _153
REMARK   68  A    between atoms: _155  and  _157
REMARK   69  A    between atoms: _157  and  _158
REMARK   70  A    between atoms: _160  and  _162
REMARK   71  A    between atoms: _162  and  _163
REMARK   72  A    between atoms: _162  and  _165
REMARK   73  A    between atoms: _165  and  _166
REMARK   74  A    between atoms: _169  and  _171
REMARK   75  A    between atoms: _171  and  _172
REMARK   76  A    between atoms: _171  and  _174
REMARK   77  A    between atoms: _177  and  _179
REMARK   78  A    between atoms: _179  and  _180
REMARK   79  A    between atoms: _179  and  _182
REMARK   80  A    between atoms: _182  and  _183
REMARK   81  A    between atoms: _187  and  _188
REMARK   82  A    between atoms: _193  and  _195
REMARK   83  A    between atoms: _195  and  _196
REMARK   84  A    between atoms: _195  and  _198
REMARK   85  A    between atoms: _198  and  _199
REMARK   86  A    between atoms: _203  and  _204
REMARK   87  A    between atoms: _209  and  _211
REMARK   88  A    between atoms: _211  and  _212
REMARK   89  A    between atoms: _211  and  _214
REMARK   90  A    between atoms: _217  and  _219
REMARK   91  A    between atoms: _219  and  _220
REMARK   92  A    between atoms: _219  and  _222
REMARK   93  A    between atoms: _222  and  _223
REMARK   94  A    between atoms: _228  and  _230
REMARK   95  A    between atoms: _230  and  _231
REMARK   96  A    between atoms: _230  and  _233
REMARK   97  A    between atoms: _233  and  _234
REMARK   98  A    between atoms: _237  and  _239
REMARK   99  A    between atoms: _239  and  _240
REMARK  100  A    between atoms: _239  and  _242
REMARK  101  A    between atoms: _242  and  _243
REMARK  102  A    between atoms: _246  and  _248
REMARK  103  A    between atoms: _248  and  _249
REMARK  104  A    between atoms: _251  and  _253
REMARK  105  A    between atoms: _253  and  _254
REMARK  106  A    between atoms: _253  and  _256
REMARK  107  A    between atoms: _256  and  _257
REMARK  108  A    between atoms: _257  and  _258
REMARK  109  A    between atoms: _258  and  _259
REMARK  110  A    between atoms: _268  and  _270
REMARK  111  A    between atoms: _270  and  _271
REMARK  112  A    between atoms: _270  and  _273
REMARK  113  A    between atoms: _273  and  _274
REMARK  114  A    between atoms: _279  and  _281
REMARK  115  A    between atoms: _281  and  _282
REMARK  116  A    between atoms: _281  and  _284
REMARK  117  A    between atoms: _284  and  _285
REMARK  118  A    between atoms: _285  and  _286
REMARK  119  A    between atoms: _286  and  _287
REMARK  120  A    between atoms: _296  and  _298
REMARK  121  A    between atoms: _298  and  _299
REMARK  122  A    between atoms: _298  and  _301
REMARK  123  A    between atoms: _301  and  _302
REMARK  124  A    between atoms: _305  and  _307
REMARK  125  A    between atoms: _307  and  _308
REMARK  126  A    between atoms: _307  and  _310
REMARK  127  A    between atoms: _310  and  _311
REMARK  128  A    between atoms: _314  and  _316
REMARK  129  A    between atoms: _316  and  _317
REMARK  130  A    between atoms: _316  and  _319
REMARK  131  A    between atoms: _319  and  _320
REMARK  132  A    between atoms: _323  and  _325
REMARK  133  A    between atoms: _325  and  _326
REMARK  134  A    between atoms: _325  and  _328
REMARK  135  A    between atoms: _328  and  _329
REMARK  136  A    between atoms: _332  and  _334
REMARK  137  A    between atoms: _334  and  _335
REMARK  138  A    between atoms: _337  and  _339
REMARK  139  A    between atoms: _339  and  _340
REMARK  140  A    between atoms: _343  and  _345
REMARK  141  A    between atoms: _345  and  _346
REMARK  142  A    between atoms: _345  and  _348
REMARK  143  A    between atoms: _348  and  _349
REMARK  144  A    between atoms: _352  and  _354
REMARK  145  A    between atoms: _354  and  _355
REMARK  146  A    between atoms: _354  and  _357
REMARK  147  A    between atoms: _357  and  _358
REMARK  148  A    between atoms: _361  and  _363
REMARK  149  A    between atoms: _363  and  _364
REMARK  150  A    between atoms: _363  and  _366
REMARK  151  A    between atoms: _366  and  _367
REMARK  152  A    between atoms: _370  and  _372
REMARK  153  A    between atoms: _372  and  _373
REMARK  154  A    between atoms: _372  and  _375
REMARK  155  A    between atoms: _378  and  _380
REMARK  156  A    between atoms: _380  and  _381
REMARK  157  A    between atoms: _380  and  _383
REMARK  158  A    between atoms: _383  and  _384
REMARK  159  A    between atoms: _387  and  _389
REMARK  160  A    between atoms: _389  and  _390
REMARK  161  A    between atoms: _392  and  _394
REMARK  162  A    between atoms: _394  and  _395
REMARK  163  A    between atoms: _397  and  _399
REMARK  164  A    between atoms: _399  and  _400
REMARK  165  A    between atoms: _399  and  _402
REMARK  166  A    between atoms: _402  and  _403
REMARK  167  A    between atoms: _406  and  _408
REMARK  168  A    between atoms: _408  and  _409
REMARK  169  A    between atoms: _411  and  _413
REMARK  170  A    between atoms: _413  and  _414
REMARK  171  A    between atoms: _416  and  _418
REMARK  172  A    between atoms: _418  and  _419
REMARK  173  A    between atoms: _418  and  _421
REMARK  174  A    between atoms: _421  and  _422
REMARK  175  A    between atoms: _425  and  _427
REMARK  176  A    between atoms: _427  and  _428
REMARK  177  A    between atoms: _427  and  _430
REMARK  178  A    between atoms: _430  and  _431
REMARK  179  A    between atoms: _434  and  _436
REMARK  180  A    between atoms: _436  and  _437
REMARK  181  A    between atoms: _436  and  _439
REMARK  182  A    between atoms: _439  and  _440
REMARK  183  A    between atoms: _444  and  _445
REMARK  184  A    between atoms: _450  and  _452
REMARK  185  A    between atoms: _452  and  _453
REMARK  186  A    between atoms: _452  and  _455
REMARK  187  A    between atoms: _458  and  _460
REMARK  188  A    between atoms: _460  and  _461
REMARK  189  A    between atoms: _460  and  _463
REMARK  190  A    between atoms: _463  and  _464
REMARK  191  A    between atoms: _469  and  _471
REMARK  192  A    between atoms: _471  and  _472
REMARK  193  A    between atoms: _471  and  _474
REMARK  194  A    between atoms: _474  and  _475
REMARK  195  A    between atoms: _478  and  _480
REMARK  196  A    between atoms: _480  and  _481
REMARK  197  A    between atoms: _480  and  _483
REMARK  198  A    between atoms: _483  and  _484
REMARK  199  A    between atoms: _487  and  _489
REMARK  200  A    between atoms: _489  and  _490
REMARK  201  A    between atoms: _492  and  _494
REMARK  202  A    between atoms: _494  and  _495
REMARK  203  A    between atoms: _494  and  _497
REMARK  204  A    between atoms: _497  and  _498
REMARK  205  A    between atoms: _498  and  _499
REMARK  206  A    between atoms: _499  and  _500
REMARK  207  A    between atoms: _509  and  _511
REMARK  208  A    between atoms: _511  and  _512
REMARK  209  A    between atoms: _511  and  _514
REMARK  210  A    between atoms: _514  and  _515
REMARK                            x       y       z     vdW  Elec       q    Type
REMARK                         _______ _______ _______ _____ _____    ______ ____
ROOT
ATOM      1  C   GLY A   5     -22.860   2.436  -3.165  0.00  0.00    +0.243 C 
ATOM      2  O   GLY A   5     -21.855   3.153  -3.273  0.00  0.00    -0.273 OA
ATOM      3  N   ALA A   6     -23.148   1.495  -4.053  0.00  0.00    -0.297 N 
ATOM      4  H   ALA A   6     -24.028   0.949  -3.958  0.00  0.00    +0.150 HD
ENDROOT
BRANCH   3   5
ATOM      5  CA  ALA A   6     -22.247   1.220  -5.156  0.00  0.00    +0.149 C 
ATOM      6  CB  ALA A   6     -21.995  -0.358  -5.236  0.00  0.00    +0.031 C 
BRANCH   5   7
ATOM      7  C   ALA A   6     -22.836   1.738  -6.457  0.00  0.00    +0.241 C 
ATOM      8  O   ALA A   6     -23.999   1.459  -6.767  0.00  0.00    -0.273 OA
ATOM      9  N   ASP A   7     -22.073   2.510  -7.230  0.00  0.00    -0.297 N 
ATOM     10  H   ASP A   7     -21.096   2.743  -6.959  0.00  0.00    +0.150 HD
BRANCH   9  11
ATOM     11  CA  ASP A   7     -22.647   3.013  -8.458  0.00  0.00    +0.160 C 
BRANCH  11  12
ATOM     12  C   ASP A   7     -22.761   1.886  -9.456  0.00  0.00    +0.241 C 
ATOM     13  N   ASP A   8     -21.734   1.016  -9.461  0.00  0.00    -0.297 N 
ATOM     14  H   ASP A   8     -20.984   1.105  -8.746  0.00  0.00    +0.150 HD
ATOM     15  O   ASP A   7     -23.718   1.872 -10.271  0.00  0.00    -0.273 OA
BRANCH  13  16
ATOM     16  CA  ASP A   8     -21.656  -0.064 -10.467  0.00  0.00    +0.160 C 
BRANCH  16  17
ATOM     17  C   ASP A   8     -21.500  -1.431  -9.804  0.00  0.00    +0.241 C 
ATOM     18  O   ASP A   8     -21.208  -1.539  -8.598  0.00  0.00    -0.273 OA
ATOM     19  N   THR A   9     -21.722  -2.466 -10.600  0.00  0.00    -0.295 N 
ATOM     20  H   THR A   9     -21.893  -2.308 -11.613  0.00  0.00    +0.150 HD
BRANCH  19  21
ATOM     21  CA  THR A   9     -21.729  -3.840 -10.066  0.00  0.00    +0.176 C 
BRANCH  21  22
ATOM     22  C   THR A   9     -20.318  -4.407 -10.148  0.00  0.00    +0.243 C 
ATOM     23  N   VAL A  10     -19.850  -5.069  -9.093  0.00  0.00    -0.298 N 
ATOM     24  H   VAL A  10     -20.496  -5.283  -8.307  0.00  0.00    +0.150 HD
ATOM     25  O   THR A   9     -19.657  -4.203 -11.161  0.00  0.00    -0.273 OA
BRANCH  23  26
ATOM     26  CA  VAL A  10     -18.451  -5.508  -9.002  0.00  0.00    +0.137 C 
BRANCH  26  27
ATOM     27  CB  VAL A  10     -17.547  -4.660  -8.040  0.00  0.00    +0.026 C 
ATOM     28  CG2 VAL A  10     -16.067  -5.002  -8.279  0.00  0.00    +0.002 C 
ATOM     29  CG1 VAL A  10     -17.704  -3.153  -8.322  0.00  0.00    +0.002 C 
ENDBRANCH  26  27
BRANCH  26  30
ATOM     30  C   VAL A  10     -18.485  -6.967  -8.498  0.00  0.00    +0.227 C 
ATOM     31  O   VAL A  10     -18.965  -7.237  -7.402  0.00  0.00    -0.286 OA
ENDBRANCH  26  30
ENDBRANCH  23  26
ENDBRANCH  21  22
BRANCH  21  32
ATOM     32  CB  THR A   9     -22.732  -4.651 -10.905  0.00  0.00    +0.137 C 
ATOM     33  CG2 THR A   9     -22.677  -6.191 -10.654  0.00  0.00    +0.034 C 
BRANCH  32  34
ATOM     34  OG1 THR A   9     -24.047  -4.149 -10.661  0.00  0.00    -0.382 OA
ATOM     35  HG1 THR A   9     -24.088  -3.194 -10.919  0.00  0.00    +0.210 HD
ENDBRANCH  32  34
ENDBRANCH  21  32
ENDBRANCH  19  21
ENDBRANCH  16  17
BRANCH  16  36
ATOM     36  CB  ASP A   8     -20.526   0.154 -11.477  0.00  0.00    +0.143 C 
BRANCH  36  37
ATOM     37  CG  ASP A   8     -20.845   1.258 -12.474  0.00  0.00    +0.367 C 
ATOM     38  OD2 ASP A   8     -20.285   2.360 -12.284  0.00  0.00    -0.246 OA
ATOM     39  OD1 ASP A   8     -21.629   1.015 -13.444  0.00  0.00    -0.246 OA
ENDBRANCH  36  37
ENDBRANCH  16  36
ENDBRANCH  13  16
ENDBRANCH  11  12
BRANCH  11  40
ATOM     40  CB  ASP A   7     -21.744   4.056  -9.125  0.00  0.00    +0.143 C 
BRANCH  40  41
ATOM     41  CG  ASP A   7     -21.513   5.305  -8.248  0.00  0.00    +0.367 C 
ATOM     42  OD2 ASP A   7     -22.338   5.608  -7.338  0.00  0.00    -0.246 OA
ATOM     43  OD1 ASP A   7     -20.496   6.004  -8.504  0.00  0.00    -0.246 OA
ENDBRANCH  40  41
ENDBRANCH  11  40
ENDBRANCH   9  11
ENDBRANCH   5   7
ENDBRANCH   3   5
BRANCH   1  44
ATOM     44  CA  GLY A   5     -23.843   2.636  -2.011  0.00  0.00    +0.176 C 
BRANCH  44  46
ATOM     45  C   THR A   4     -26.061   2.095  -2.771  0.00  0.00    +0.243 C 
ATOM     46  N   GLY A   5     -25.005   1.758  -2.046  0.00  0.00    -0.295 N 
ATOM     47  H   GLY A   5     -25.005   0.870  -1.504  0.00  0.00    +0.150 HD
ATOM     48  O   THR A   4     -26.111   3.151  -3.443  0.00  0.00    -0.273 OA
BRANCH  45  49
ATOM     49  CA  THR A   4     -27.219   1.112  -2.812  0.00  0.00    +0.176 C 
BRANCH  49  51
ATOM     50  C   ASP A   3     -25.965  -0.977  -3.022  0.00  0.00    +0.241 C 
ATOM     51  N   THR A   4     -26.788  -0.202  -2.307  0.00  0.00    -0.295 N 
ATOM     52  H   THR A   4     -27.128  -0.532  -1.381  0.00  0.00    +0.150 HD
ATOM     53  O   ASP A   3     -25.421  -0.584  -4.070  0.00  0.00    -0.273 OA
BRANCH  50  54
ATOM     54  CA  ASP A   3     -25.667  -2.370  -2.463  0.00  0.00    +0.160 C 
BRANCH  54  57
ATOM     55  C   LEU A   2     -27.140  -4.260  -2.295  0.00  0.00    +0.241 C 
ATOM     56  O   LEU A   2     -27.265  -4.077  -1.059  0.00  0.00    -0.273 OA
ATOM     57  N   ASP A   3     -26.474  -3.404  -3.086  0.00  0.00    -0.297 N 
ATOM     58  H   ASP A   3     -26.535  -3.480  -4.121  0.00  0.00    +0.150 HD
BRANCH  55  59
ATOM     59  CA  LEU A   2     -27.672  -5.517  -2.963  0.00  0.00    +0.149 C 
BRANCH  59  61
ATOM     60  C   LEU A   1     -25.674  -6.911  -2.658  0.00  0.00    +0.238 C 
ATOM     61  N   LEU A   2     -26.965  -6.644  -2.345  0.00  0.00    -0.297 N 
ATOM     62  H   LEU A   2     -27.461  -7.246  -1.657  0.00  0.00    +0.150 HD
ATOM     63  O   LEU A   1     -25.085  -6.336  -3.599  0.00  0.00    -0.274 OA
BRANCH  60  64
ATOM     64  CA  LEU A   1     -24.955  -8.006  -1.895  0.00  0.00    +0.145 C 
BRANCH  64  65
ATOM     65  N   LEU A   1     -24.352  -8.922  -2.841  0.00  0.00    -0.238 NA
ATOM     66  H   LEU A   1     -23.415  -8.696  -3.233  0.00  0.00    +0.142 HD
ENDBRANCH  64  65
BRANCH  64  67
ATOM     67  CB  LEU A   1     -23.744  -7.408  -1.081  0.00  0.00    +0.026 C 
BRANCH  67  68
ATOM     68  CG  LEU A   1     -23.938  -6.588   0.173  0.00  0.00    +0.002 C 
ATOM     69  CD2 LEU A   1     -24.531  -7.431   1.262  0.00  0.00    +0.000 C 
ATOM     70  CD1 LEU A   1     -22.523  -6.035   0.571  0.00  0.00    +0.000 C 
ENDBRANCH  67  68
ENDBRANCH  64  67
ENDBRANCH  60  64
ENDBRANCH  59  61
BRANCH  59  71
ATOM     71  CB  LEU A   2     -29.146  -5.639  -2.722  0.00  0.00    +0.029 C 
BRANCH  71  72
ATOM     72  CG  LEU A   2     -29.841  -6.857  -3.287  0.00  0.00    +0.002 C 
ATOM     73  CD2 LEU A   2     -31.342  -6.782  -2.878  0.00  0.00    +0.000 C 
ATOM     74  CD1 LEU A   2     -29.670  -6.909  -4.785  0.00  0.00    +0.000 C 
ENDBRANCH  71  72
ENDBRANCH  59  71
ENDBRANCH  55  59
ENDBRANCH  54  57
BRANCH  54  75
ATOM     75  CB  ASP A   3     -24.211  -2.686  -2.721  0.00  0.00    +0.143 C 
BRANCH  75  76
ATOM     76  CG  ASP A   3     -23.288  -1.794  -2.002  0.00  0.00    +0.367 C 
ATOM     77  OD2 ASP A   3     -23.718  -0.843  -1.321  0.00  0.00    -0.246 OA
ATOM     78  OD1 ASP A   3     -22.100  -2.084  -2.052  0.00  0.00    -0.246 OA
ENDBRANCH  75  76
ENDBRANCH  54  75
ENDBRANCH  50  54
ENDBRANCH  49  51
BRANCH  49  79
ATOM     79  CB  THR A   4     -28.350   1.694  -1.973  0.00  0.00    +0.137 C 
ATOM     80  CG2 THR A   4     -29.578   0.769  -2.051  0.00  0.00    +0.034 C 
BRANCH  79  81
ATOM     81  OG1 THR A   4     -27.962   1.708  -0.581  0.00  0.00    -0.382 OA
ATOM     82  HG1 THR A   4     -27.150   2.264  -0.471  0.00  0.00    +0.210 HD
ENDBRANCH  79  81
ENDBRANCH  49  79
ENDBRANCH  45  49
ENDBRANCH  44  46
ENDBRANCH   1  44
TORSDOF 35
REMARK  Name = ../refined-set-2016/4i8z/4i8z_pocket.pdb
REMARK  210 active torsions:
REMARK  status: ('A' for Active; 'I' for Inactive)
REMARK    1  A    between atoms: _1  and  _3
REMARK    2  A    between atoms: _3  and  _4
REMARK    3  A    between atoms: _3  and  _6
REMARK    4  A    between atoms: _6  and  _7
REMARK    5  A    between atoms: _7  and  _8
REMARK    6  A    between atoms: _8  and  _9
REMARK    7  A    between atoms: _18  and  _20
REMARK    8  A    between atoms: _20  and  _21
REMARK    9  A    between atoms: _20  and  _23
REMARK   10  A    between atoms: _23  and  _24
REMARK   11  A    between atoms: _27  and  _29
REMARK   12  A    between atoms: _29  and  _30
REMARK   13  A    between atoms: _29  and  _32
REMARK   14  A    between atoms: _32  and  _33
REMARK   15  A    between atoms: _36  and  _38
REMARK   16  A    between atoms: _38  and  _39
REMARK   17  A    between atoms: _38  and  _41
REMARK   18  A    between atoms: _41  and  _42
REMARK   19  A    between atoms: _45  and  _47
REMARK   20  A    between atoms: _47  and  _48
REMARK   21  A    between atoms: _47  and  _50
REMARK   22  A    between atoms: _50  and  _51
REMARK   23  A    between atoms: _54  and  _56
REMARK   24  A    between atoms: _56  and  _57
REMARK   25  A    between atoms: _59  and  _61
REMARK   26  A    between atoms: _61  and  _62
REMARK   27  A    between atoms: _65  and  _67
REMARK   28  A    between atoms: _67  and  _68
REMARK   29  A    between atoms: _67  and  _70
REMARK   30  A    between atoms: _70  and  _71
REMARK   31  A    between atoms: _74  and  _76
REMARK   32  A    between atoms: _76  and  _77
REMARK   33  A    between atoms: _76  and  _79
REMARK   34  A    between atoms: _79  and  _80
REMARK   35  A    between atoms: _83  and  _85
REMARK   36  A    between atoms: _85  and  _86
REMARK   37  A    between atoms: _85  and  _88
REMARK   38  A    between atoms: _88  and  _89
REMARK   39  A    between atoms: _92  and  _94
REMARK   40  A    between atoms: _94  and  _95
REMARK   41  A    between atoms: _94  and  _97
REMARK   42  A    between atoms: _100  and  _102
REMARK   43  A    between atoms: _102  and  _103
REMARK   44  A    between atoms: _102  and  _105
REMARK   45  A    between atoms: _105  and  _106
REMARK   46  A    between atoms: _106  and  _107
REMARK   47  A    between atoms: _107  and  _108
REMARK   48  A    between atoms: _108  and  _109
REMARK   49  A    between atoms: _113  and  _115
REMARK   50  A    between atoms: _115  and  _116
REMARK   51  A    between atoms: _115  and  _118
REMARK   52  A    between atoms: _118  and  _119
REMARK   53  A    between atoms: _119  and  _120
REMARK   54  A    between atoms: _122  and  _124
REMARK   55  A    between atoms: _124  and  _125
REMARK   56  A    between atoms: _124  and  _127
REMARK   57  A    between atoms: _127  and  _128
REMARK   58  A    between atoms: _131  and  _133
REMARK   59  A    between atoms: _133  and  _134
REMARK   60  A    between atoms: _136  and  _138
REMARK   61  A    between atoms: _138  and  _139
REMARK   62  A    between atoms: _141  and  _143
REMARK   63  A    between atoms: _143  and  _144
REMARK   64  A    between atoms: _143  and  _146
REMARK   65  A    between atoms: _146  and  _147
REMARK   66  A    between atoms: _150  and  _152
REMARK   67  A    between atoms: _152  and  _153
REMARK   68  A    between atoms: _155  and  _157
REMARK   69  A    between atoms: _157  and  _158
REMARK   70  A    between atoms: _160  and  _162
REMARK   71  A    between atoms: _162  and  _163
REMARK   72  A    between atoms: _162  and  _165
REMARK   73  A    between atoms: _165  and  _166
REMARK   74  A    between atoms: _169  and  _171
REMARK   75  A    between atoms: _171  and  _172
REMARK   76  A    between atoms: _171  and  _174
REMARK   77  A    between atoms: _177  and  _179
REMARK   78  A    between atoms: _179  and  _180
REMARK   79  A    between atoms: _179  and  _182
REMARK   80  A    between atoms: _182  and  _183
REMARK   81  A    between atoms: _187  and  _188
REMARK   82  A    between atoms: _193  and  _195
REMARK   83  A    between atoms: _195  and  _196
REMARK   84  A    between atoms: _195  and  _198
REMARK   85  A    between atoms: _198  and  _199
REMARK   86  A    between atoms: _203  and  _204
REMARK   87  A    between atoms: _209  and  _211
REMARK   88  A    between atoms: _211  and  _212
REMARK   89  A    between atoms: _211  and  _214
REMARK   90  A    between atoms: _217  and  _219
REMARK   91  A    between atoms: _219  and  _220
REMARK   92  A    between atoms: _219  and  _222
REMARK   93  A    between atoms: _222  and  _223
REMARK   94  A    between atoms: _228  and  _230
REMARK   95  A    between atoms: _230  and  _231
REMARK   96  A    between atoms: _230  and  _233
REMARK   97  A    between atoms: _233  and  _234
REMARK   98  A    between atoms: _237  and  _239
REMARK   99  A    between atoms: _239  and  _240
REMARK  100  A    between atoms: _239  and  _242
REMARK  101  A    between atoms: _242  and  _243
REMARK  102  A    between atoms: _246  and  _248
REMARK  103  A    between atoms: _248  and  _249
REMARK  104  A    between atoms: _251  and  _253
REMARK  105  A    between atoms: _253  and  _254
REMARK  106  A    between atoms: _253  and  _256
REMARK  107  A    between atoms: _256  and  _257
REMARK  108  A    between atoms: _257  and  _258
REMARK  109  A    between atoms: _258  and  _259
REMARK  110  A    between atoms: _268  and  _270
REMARK  111  A    between atoms: _270  and  _271
REMARK  112  A    between atoms: _270  and  _273
REMARK  113  A    between atoms: _273  and  _274
REMARK  114  A    between atoms: _279  and  _281
REMARK  115  A    between atoms: _281  and  _282
REMARK  116  A    between atoms: _281  and  _284
REMARK  117  A    between atoms: _284  and  _285
REMARK  118  A    between atoms: _285  and  _286
REMARK  119  A    between atoms: _286  and  _287
REMARK  120  A    between atoms: _296  and  _298
REMARK  121  A    between atoms: _298  and  _299
REMARK  122  A    between atoms: _298  and  _301
REMARK  123  A    between atoms: _301  and  _302
REMARK  124  A    between atoms: _305  and  _307
REMARK  125  A    between atoms: _307  and  _308
REMARK  126  A    between atoms: _307  and  _310
REMARK  127  A    between atoms: _310  and  _311
REMARK  128  A    between atoms: _314  and  _316
REMARK  129  A    between atoms: _316  and  _317
REMARK  130  A    between atoms: _316  and  _319
REMARK  131  A    between atoms: _319  and  _320
REMARK  132  A    between atoms: _323  and  _325
REMARK  133  A    between atoms: _325  and  _326
REMARK  134  A    between atoms: _325  and  _328
REMARK  135  A    between atoms: _328  and  _329
REMARK  136  A    between atoms: _332  and  _334
REMARK  137  A    between atoms: _334  and  _335
REMARK  138  A    between atoms: _337  and  _339
REMARK  139  A    between atoms: _339  and  _340
REMARK  140  A    between atoms: _343  and  _345
REMARK  141  A    between atoms: _345  and  _346
REMARK  142  A    between atoms: _345  and  _348
REMARK  143  A    between atoms: _348  and  _349
REMARK  144  A    between atoms: _352  and  _354
REMARK  145  A    between atoms: _354  and  _355
REMARK  146  A    between atoms: _354  and  _357
REMARK  147  A    between atoms: _357  and  _358
REMARK  148  A    between atoms: _361  and  _363
REMARK  149  A    between atoms: _363  and  _364
REMARK  150  A    between atoms: _363  and  _366
REMARK  151  A    between atoms: _366  and  _367
REMARK  152  A    between atoms: _370  and  _372
REMARK  153  A    between atoms: _372  and  _373
REMARK  154  A    between atoms: _372  and  _375
REMARK  155  A    between atoms: _378  and  _380
REMARK  156  A    between atoms: _380  and  _381
REMARK  157  A    between atoms: _380  and  _383
REMARK  158  A    between atoms: _383  and  _384
REMARK  159  A    between atoms: _387  and  _389
REMARK  160  A    between atoms: _389  and  _390
REMARK  161  A    between atoms: _392  and  _394
REMARK  162  A    between atoms: _394  and  _395
REMARK  163  A    between atoms: _397  and  _399
REMARK  164  A    between atoms: _399  and  _400
REMARK  165  A    between atoms: _399  and  _402
REMARK  166  A    between atoms: _402  and  _403
REMARK  167  A    between atoms: _406  and  _408
REMARK  168  A    between atoms: _408  and  _409
REMARK  169  A    between atoms: _411  and  _413
REMARK  170  A    between atoms: _413  and  _414
REMARK  171  A    between atoms: _416  and  _418
REMARK  172  A    between atoms: _418  and  _419
REMARK  173  A    between atoms: _418  and  _421
REMARK  174  A    between atoms: _421  and  _422
REMARK  175  A    between atoms: _425  and  _427
REMARK  176  A    between atoms: _427  and  _428
REMARK  177  A    between atoms: _427  and  _430
REMARK  178  A    between atoms: _430  and  _431
REMARK  179  A    between atoms: _434  and  _436
REMARK  180  A    between atoms: _436  and  _437
REMARK  181  A    between atoms: _436  and  _439
REMARK  182  A    between atoms: _439  and  _440
REMARK  183  A    between atoms: _444  and  _445
REMARK  184  A    between atoms: _450  and  _452
REMARK  185  A    between atoms: _452  and  _453
REMARK  186  A    between atoms: _452  and  _455
REMARK  187  A    between atoms: _458  and  _460
REMARK  188  A    between atoms: _460  and  _461
REMARK  189  A    between atoms: _460  and  _463
REMARK  190  A    between atoms: _463  and  _464
REMARK  191  A    between atoms: _469  and  _471
REMARK  192  A    between atoms: _471  and  _472
REMARK  193  A    between atoms: _471  and  _474
REMARK  194  A    between atoms: _474  and  _475
REMARK  195  A    between atoms: _478  and  _480
REMARK  196  A    between atoms: _480  and  _481
REMARK  197  A    between atoms: _480  and  _483
REMARK  198  A    between atoms: _483  and  _484
REMARK  199  A    between atoms: _487  and  _489
REMARK  200  A    between atoms: _489  and  _490
REMARK  201  A    between atoms: _492  and  _494
REMARK  202  A    between atoms: _494  and  _495
REMARK  203  A    between atoms: _494  and  _497
REMARK  204  A    between atoms: _497  and  _498
REMARK  205  A    between atoms: _498  and  _499
REMARK  206  A    between atoms: _499  and  _500
REMARK  207  A    between atoms: _509  and  _511
REMARK  208  A    between atoms: _511  and  _512
REMARK  209  A    between atoms: _511  and  _514
REMARK  210  A    between atoms: _514  and  _515
REMARK                            x       y       z     vdW  Elec       q    Type
REMARK                         _______ _______ _______ _____ _____    ______ ____
ROOT
ATOM      1  C   GLY A   3     -12.994   2.761  -1.164  0.00  0.00    +0.243 C 
ATOM      2  N   ILE A   4     -13.502   2.222  -0.062  0.00  0.00    -0.297 N 
ATOM      3  H   ILE A   4     -14.235   1.487  -0.128  0.00  0.00    +0.150 HD
ATOM      4  O   GLY A   3     -12.043   3.568  -1.159  0.00  0.00    -0.273 OA
ENDROOT
BRANCH   2   5
ATOM      5  CA  ILE A   4     -13.027   2.665   1.231  0.00  0.00    +0.149 C 
BRANCH   5   6
ATOM      6  C   ILE A   4     -11.518   2.731   1.474  0.00  0.00    +0.241 C 
ATOM      7  O   ILE A   4     -11.034   3.775   1.985  0.00  0.00    -0.273 OA
ATOM      8  N   GLY A   5     -10.784   1.684   1.094  0.00  0.00    -0.295 N 
ATOM      9  H   GLY A   5     -11.234   0.907   0.568  0.00  0.00    +0.150 HD
BRANCH   8  10
ATOM     10  CA  GLY A   5      -9.366   1.612   1.403  0.00  0.00    +0.176 C 
BRANCH  10  11
ATOM     11  C   GLY A   5      -8.368   1.863   0.250  0.00  0.00    +0.243 C 
ATOM     12  O   GLY A   5      -7.144   1.617   0.353  0.00  0.00    -0.273 OA
ATOM     13  N   GLY A   6      -8.895   2.346  -0.865  0.00  0.00    -0.296 N 
ATOM     14  H   GLY A   6      -9.913   2.559  -0.883  0.00  0.00    +0.150 HD
BRANCH  13  15
ATOM     15  CA  GLY A   6      -8.118   2.589  -2.054  0.00  0.00    +0.163 C 
BRANCH  15  16
ATOM     16  C   GLY A   6      -8.847   2.063  -3.261  0.00  0.00    +0.229 C 
ATOM     17  O   GLY A   6     -10.095   1.965  -3.281  0.00  0.00    -0.286 OA
ENDBRANCH  15  16
ENDBRANCH  13  15
ENDBRANCH  10  11
ENDBRANCH   8  10
ENDBRANCH   5   6
BRANCH   5  18
ATOM     18  CB  ILE A   4     -13.774   1.979   2.409  0.00  0.00    +0.027 C 
ATOM     19  CG2 ILE A   4     -12.865   1.074   3.236  0.00  0.00    +0.002 C 
BRANCH  18  20
ATOM     20  CG1 ILE A   4     -14.303   3.096   3.293  0.00  0.00    +0.002 C 
ATOM     21  CD1 ILE A   4     -15.439   2.646   4.245  0.00  0.00    +0.000 C 
ENDBRANCH  18  20
ENDBRANCH   5  18
ENDBRANCH   2   5
BRANCH   1  22
ATOM     22  CA  GLY A   3     -13.631   2.323  -2.437  0.00  0.00    +0.176 C 
BRANCH  22  24
ATOM     23  C   GLY A   2     -13.055   2.953  -4.670  0.00  0.00    +0.243 C 
ATOM     24  N   GLY A   3     -12.669   2.498  -3.490  0.00  0.00    -0.295 N 
ATOM     25  H   GLY A   3     -11.669   2.267  -3.324  0.00  0.00    +0.150 HD
ATOM     26  O   GLY A   2     -14.232   3.229  -4.900  0.00  0.00    -0.273 OA
BRANCH  23  27
ATOM     27  CA  GLY A   2     -11.947   3.194  -5.679  0.00  0.00    +0.176 C 
BRANCH  27  29
ATOM     28  C   ILE A   1     -11.932   1.839  -7.659  0.00  0.00    +0.238 C 
ATOM     29  N   GLY A   2     -12.407   2.895  -7.009  0.00  0.00    -0.296 N 
ATOM     30  H   GLY A   2     -13.114   3.508  -7.463  0.00  0.00    +0.150 HD
ATOM     31  O   ILE A   1     -11.141   1.039  -7.155  0.00  0.00    -0.274 OA
BRANCH  28  32
ATOM     32  CA  ILE A   1     -12.378   1.700  -9.115  0.00  0.00    +0.145 C 
BRANCH  32  33
ATOM     33  CB  ILE A   1     -13.681   0.881  -9.188  0.00  0.00    +0.025 C 
ATOM     34  CG2 ILE A   1     -14.138   0.799 -10.622  0.00  0.00    +0.002 C 
BRANCH  33  35
ATOM     35  CG1 ILE A   1     -13.467  -0.521  -8.639  0.00  0.00    +0.002 C 
ATOM     36  CD1 ILE A   1     -14.742  -1.255  -8.619  0.00  0.00    +0.000 C 
ENDBRANCH  33  35
ENDBRANCH  32  33
BRANCH  32  37
ATOM     37  N   ILE A   1     -11.350   1.170  -9.975  0.00  0.00    -0.238 NA
ATOM     38  H   ILE A   1     -10.904   0.262  -9.733  0.00  0.00    +0.142 HD
ENDBRANCH  32  37
ENDBRANCH  28  32
ENDBRANCH  27  29
ENDBRANCH  23  27
ENDBRANCH  22  24
ENDBRANCH   1  22
TORSDOF 16
REMARK  Name = ../refined-set-2016/4i8z/4i8z_pocket.pdb
REMARK  210 active torsions:
REMARK  status: ('A' for Active; 'I' for Inactive)
REMARK    1  A    between atoms: _1  and  _3
REMARK    2  A    between atoms: _3  and  _4
REMARK    3  A    between atoms: _3  and  _6
REMARK    4  A    between atoms: _6  and  _7
REMARK    5  A    between atoms: _7  and  _8
REMARK    6  A    between atoms: _8  and  _9
REMARK    7  A    between atoms: _18  and  _20
REMARK    8  A    between atoms: _20  and  _21
REMARK    9  A    between atoms: _20  and  _23
REMARK   10  A    between atoms: _23  and  _24
REMARK   11  A    between atoms: _27  and  _29
REMARK   12  A    between atoms: _29  and  _30
REMARK   13  A    between atoms: _29  and  _32
REMARK   14  A    between atoms: _32  and  _33
REMARK   15  A    between atoms: _36  and  _38
REMARK   16  A    between atoms: _38  and  _39
REMARK   17  A    between atoms: _38  and  _41
REMARK   18  A    between atoms: _41  and  _42
REMARK   19  A    between atoms: _45  and  _47
REMARK   20  A    between atoms: _47  and  _48
REMARK   21  A    between atoms: _47  and  _50
REMARK   22  A    between atoms: _50  and  _51
REMARK   23  A    between atoms: _54  and  _56
REMARK   24  A    between atoms: _56  and  _57
REMARK   25  A    between atoms: _59  and  _61
REMARK   26  A    between atoms: _61  and  _62
REMARK   27  A    between atoms: _65  and  _67
REMARK   28  A    between atoms: _67  and  _68
REMARK   29  A    between atoms: _67  and  _70
REMARK   30  A    between atoms: _70  and  _71
REMARK   31  A    between atoms: _74  and  _76
REMARK   32  A    between atoms: _76  and  _77
REMARK   33  A    between atoms: _76  and  _79
REMARK   34  A    between atoms: _79  and  _80
REMARK   35  A    between atoms: _83  and  _85
REMARK   36  A    between atoms: _85  and  _86
REMARK   37  A    between atoms: _85  and  _88
REMARK   38  A    between atoms: _88  and  _89
REMARK   39  A    between atoms: _92  and  _94
REMARK   40  A    between atoms: _94  and  _95
REMARK   41  A    between atoms: _94  and  _97
REMARK   42  A    between atoms: _100  and  _102
REMARK   43  A    between atoms: _102  and  _103
REMARK   44  A    between atoms: _102  and  _105
REMARK   45  A    between atoms: _105  and  _106
REMARK   46  A    between atoms: _106  and  _107
REMARK   47  A    between atoms: _107  and  _108
REMARK   48  A    between atoms: _108  and  _109
REMARK   49  A    between atoms: _113  and  _115
REMARK   50  A    between atoms: _115  and  _116
REMARK   51  A    between atoms: _115  and  _118
REMARK   52  A    between atoms: _118  and  _119
REMARK   53  A    between atoms: _119  and  _120
REMARK   54  A    between atoms: _122  and  _124
REMARK   55  A    between atoms: _124  and  _125
REMARK   56  A    between atoms: _124  and  _127
REMARK   57  A    between atoms: _127  and  _128
REMARK   58  A    between atoms: _131  and  _133
REMARK   59  A    between atoms: _133  and  _134
REMARK   60  A    between atoms: _136  and  _138
REMARK   61  A    between atoms: _138  and  _139
REMARK   62  A    between atoms: _141  and  _143
REMARK   63  A    between atoms: _143  and  _144
REMARK   64  A    between atoms: _143  and  _146
REMARK   65  A    between atoms: _146  and  _147
REMARK   66  A    between atoms: _150  and  _152
REMARK   67  A    between atoms: _152  and  _153
REMARK   68  A    between atoms: _155  and  _157
REMARK   69  A    between atoms: _157  and  _158
REMARK   70  A    between atoms: _160  and  _162
REMARK   71  A    between atoms: _162  and  _163
REMARK   72  A    between atoms: _162  and  _165
REMARK   73  A    between atoms: _165  and  _166
REMARK   74  A    between atoms: _169  and  _171
REMARK   75  A    between atoms: _171  and  _172
REMARK   76  A    between atoms: _171  and  _174
REMARK   77  A    between atoms: _177  and  _179
REMARK   78  A    between atoms: _179  and  _180
REMARK   79  A    between atoms: _179  and  _182
REMARK   80  A    between atoms: _182  and  _183
REMARK   81  A    between atoms: _187  and  _188
REMARK   82  A    between atoms: _193  and  _195
REMARK   83  A    between atoms: _195  and  _196
REMARK   84  A    between atoms: _195  and  _198
REMARK   85  A    between atoms: _198  and  _199
REMARK   86  A    between atoms: _203  and  _204
REMARK   87  A    between atoms: _209  and  _211
REMARK   88  A    between atoms: _211  and  _212
REMARK   89  A    between atoms: _211  and  _214
REMARK   90  A    between atoms: _217  and  _219
REMARK   91  A    between atoms: _219  and  _220
REMARK   92  A    between atoms: _219  and  _222
REMARK   93  A    between atoms: _222  and  _223
REMARK   94  A    between atoms: _228  and  _230
REMARK   95  A    between atoms: _230  and  _231
REMARK   96  A    between atoms: _230  and  _233
REMARK   97  A    between atoms: _233  and  _234
REMARK   98  A    between atoms: _237  and  _239
REMARK   99  A    between atoms: _239  and  _240
REMARK  100  A    between atoms: _239  and  _242
REMARK  101  A    between atoms: _242  and  _243
REMARK  102  A    between atoms: _246  and  _248
REMARK  103  A    between atoms: _248  and  _249
REMARK  104  A    between atoms: _251  and  _253
REMARK  105  A    between atoms: _253  and  _254
REMARK  106  A    between atoms: _253  and  _256
REMARK  107  A    between atoms: _256  and  _257
REMARK  108  A    between atoms: _257  and  _258
REMARK  109  A    between atoms: _258  and  _259
REMARK  110  A    between atoms: _268  and  _270
REMARK  111  A    between atoms: _270  and  _271
REMARK  112  A    between atoms: _270  and  _273
REMARK  113  A    between atoms: _273  and  _274
REMARK  114  A    between atoms: _279  and  _281
REMARK  115  A    between atoms: _281  and  _282
REMARK  116  A    between atoms: _281  and  _284
REMARK  117  A    between atoms: _284  and  _285
REMARK  118  A    between atoms: _285  and  _286
REMARK  119  A    between atoms: _286  and  _287
REMARK  120  A    between atoms: _296  and  _298
REMARK  121  A    between atoms: _298  and  _299
REMARK  122  A    between atoms: _298  and  _301
REMARK  123  A    between atoms: _301  and  _302
REMARK  124  A    between atoms: _305  and  _307
REMARK  125  A    between atoms: _307  and  _308
REMARK  126  A    between atoms: _307  and  _310
REMARK  127  A    between atoms: _310  and  _311
REMARK  128  A    between atoms: _314  and  _316
REMARK  129  A    between atoms: _316  and  _317
REMARK  130  A    between atoms: _316  and  _319
REMARK  131  A    between atoms: _319  and  _320
REMARK  132  A    between atoms: _323  and  _325
REMARK  133  A    between atoms: _325  and  _326
REMARK  134  A    between atoms: _325  and  _328
REMARK  135  A    between atoms: _328  and  _329
REMARK  136  A    between atoms: _332  and  _334
REMARK  137  A    between atoms: _334  and  _335
REMARK  138  A    between atoms: _337  and  _339
REMARK  139  A    between atoms: _339  and  _340
REMARK  140  A    between atoms: _343  and  _345
REMARK  141  A    between atoms: _345  and  _346
REMARK  142  A    between atoms: _345  and  _348
REMARK  143  A    between atoms: _348  and  _349
REMARK  144  A    between atoms: _352  and  _354
REMARK  145  A    between atoms: _354  and  _355
REMARK  146  A    between atoms: _354  and  _357
REMARK  147  A    between atoms: _357  and  _358
REMARK  148  A    between atoms: _361  and  _363
REMARK  149  A    between atoms: _363  and  _364
REMARK  150  A    between atoms: _363  and  _366
REMARK  151  A    between atoms: _366  and  _367
REMARK  152  A    between atoms: _370  and  _372
REMARK  153  A    between atoms: _372  and  _373
REMARK  154  A    between atoms: _372  and  _375
REMARK  155  A    between atoms: _378  and  _380
REMARK  156  A    between atoms: _380  and  _381
REMARK  157  A    between atoms: _380  and  _383
REMARK  158  A    between atoms: _383  and  _384
REMARK  159  A    between atoms: _387  and  _389
REMARK  160  A    between atoms: _389  and  _390
REMARK  161  A    between atoms: _392  and  _394
REMARK  162  A    between atoms: _394  and  _395
REMARK  163  A    between atoms: _397  and  _399
REMARK  164  A    between atoms: _399  and  _400
REMARK  165  A    between atoms: _399  and  _402
REMARK  166  A    between atoms: _402  and  _403
REMARK  167  A    between atoms: _406  and  _408
REMARK  168  A    between atoms: _408  and  _409
REMARK  169  A    between atoms: _411  and  _413
REMARK  170  A    between atoms: _413  and  _414
REMARK  171  A    between atoms: _416  and  _418
REMARK  172  A    between atoms: _418  and  _419
REMARK  173  A    between atoms: _418  and  _421
REMARK  174  A    between atoms: _421  and  _422
REMARK  175  A    between atoms: _425  and  _427
REMARK  176  A    between atoms: _427  and  _428
REMARK  177  A    between atoms: _427  and  _430
REMARK  178  A    between atoms: _430  and  _431
REMARK  179  A    between atoms: _434  and  _436
REMARK  180  A    between atoms: _436  and  _437
REMARK  181  A    between atoms: _436  and  _439
REMARK  182  A    between atoms: _439  and  _440
REMARK  183  A    between atoms: _444  and  _445
REMARK  184  A    between atoms: _450  and  _452
REMARK  185  A    between atoms: _452  and  _453
REMARK  186  A    between atoms: _452  and  _455
REMARK  187  A    between atoms: _458  and  _460
REMARK  188  A    between atoms: _460  and  _461
REMARK  189  A    between atoms: _460  and  _463
REMARK  190  A    between atoms: _463  and  _464
REMARK  191  A    between atoms: _469  and  _471
REMARK  192  A    between atoms: _471  and  _472
REMARK  193  A    between atoms: _471  and  _474
REMARK  194  A    between atoms: _474  and  _475
REMARK  195  A    between atoms: _478  and  _480
REMARK  196  A    between atoms: _480  and  _481
REMARK  197  A    between atoms: _480  and  _483
REMARK  198  A    between atoms: _483  and  _484
REMARK  199  A    between atoms: _487  and  _489
REMARK  200  A    between atoms: _489  and  _490
REMARK  201  A    between atoms: _492  and  _494
REMARK  202  A    between atoms: _494  and  _495
REMARK  203  A    between atoms: _494  and  _497
REMARK  204  A    between atoms: _497  and  _498
REMARK  205  A    between atoms: _498  and  _499
REMARK  206  A    between atoms: _499  and  _500
REMARK  207  A    between atoms: _509  and  _511
REMARK  208  A    between atoms: _511  and  _512
REMARK  209  A    between atoms: _511  and  _514
REMARK  210  A    between atoms: _514  and  _515
REMARK                            x       y       z     vdW  Elec       q    Type
REMARK                         _______ _______ _______ _____ _____    ______ ____
ROOT
ATOM      1  CA  ILE A   1      -8.617  -2.051  -7.314  0.00  0.00    +0.133 C 
ENDROOT
BRANCH   1   2
ATOM      2  N   ILE A   1      -9.013  -0.780  -6.704  0.00  0.00    -0.239 NA
ATOM      3  H   ILE A   1      -9.946  -0.371  -6.912  0.00  0.00    +0.142 HD
ENDBRANCH   1   2
BRANCH   1   4
ATOM      4  CB  ILE A   1      -9.504  -3.263  -6.862  0.00  0.00    +0.023 C 
ATOM      5  CG2 ILE A   1      -9.356  -3.469  -5.351  0.00  0.00    +0.002 C 
BRANCH   4   6
ATOM      6  CG1 ILE A   1     -10.962  -3.034  -7.282  0.00  0.00    +0.002 C 
ATOM      7  CD1 ILE A   1     -11.913  -4.231  -7.087  0.00  0.00    +0.000 C 
ENDBRANCH   4   6
ENDBRANCH   1   4
BRANCH   1   8
ATOM      8  C   ILE A   1      -8.715  -1.917  -8.834  0.00  0.00    +0.224 C 
ATOM      9  O   ILE A   1      -9.503  -1.109  -9.338  0.00  0.00    -0.287 OA
ENDBRANCH   1   8
TORSDOF 4
REMARK  Name = ../refined-set-2016/4i8z/4i8z_pocket.pdb
REMARK  210 active torsions:
REMARK  status: ('A' for Active; 'I' for Inactive)
REMARK    1  A    between atoms: _1  and  _3
REMARK    2  A    between atoms: _3  and  _4
REMARK    3  A    between atoms: _3  and  _6
REMARK    4  A    between atoms: _6  and  _7
REMARK    5  A    between atoms: _7  and  _8
REMARK    6  A    between atoms: _8  and  _9
REMARK    7  A    between atoms: _18  and  _20
REMARK    8  A    between atoms: _20  and  _21
REMARK    9  A    between atoms: _20  and  _23
REMARK   10  A    between atoms: _23  and  _24
REMARK   11  A    between atoms: _27  and  _29
REMARK   12  A    between atoms: _29  and  _30
REMARK   13  A    between atoms: _29  and  _32
REMARK   14  A    between atoms: _32  and  _33
REMARK   15  A    between atoms: _36  and  _38
REMARK   16  A    between atoms: _38  and  _39
REMARK   17  A    between atoms: _38  and  _41
REMARK   18  A    between atoms: _41  and  _42
REMARK   19  A    between atoms: _45  and  _47
REMARK   20  A    between atoms: _47  and  _48
REMARK   21  A    between atoms: _47  and  _50
REMARK   22  A    between atoms: _50  and  _51
REMARK   23  A    between atoms: _54  and  _56
REMARK   24  A    between atoms: _56  and  _57
REMARK   25  A    between atoms: _59  and  _61
REMARK   26  A    between atoms: _61  and  _62
REMARK   27  A    between atoms: _65  and  _67
REMARK   28  A    between atoms: _67  and  _68
REMARK   29  A    between atoms: _67  and  _70
REMARK   30  A    between atoms: _70  and  _71
REMARK   31  A    between atoms: _74  and  _76
REMARK   32  A    between atoms: _76  and  _77
REMARK   33  A    between atoms: _76  and  _79
REMARK   34  A    between atoms: _79  and  _80
REMARK   35  A    between atoms: _83  and  _85
REMARK   36  A    between atoms: _85  and  _86
REMARK   37  A    between atoms: _85  and  _88
REMARK   38  A    between atoms: _88  and  _89
REMARK   39  A    between atoms: _92  and  _94
REMARK   40  A    between atoms: _94  and  _95
REMARK   41  A    between atoms: _94  and  _97
REMARK   42  A    between atoms: _100  and  _102
REMARK   43  A    between atoms: _102  and  _103
REMARK   44  A    between atoms: _102  and  _105
REMARK   45  A    between atoms: _105  and  _106
REMARK   46  A    between atoms: _106  and  _107
REMARK   47  A    between atoms: _107  and  _108
REMARK   48  A    between atoms: _108  and  _109
REMARK   49  A    between atoms: _113  and  _115
REMARK   50  A    between atoms: _115  and  _116
REMARK   51  A    between atoms: _115  and  _118
REMARK   52  A    between atoms: _118  and  _119
REMARK   53  A    between atoms: _119  and  _120
REMARK   54  A    between atoms: _122  and  _124
REMARK   55  A    between atoms: _124  and  _125
REMARK   56  A    between atoms: _124  and  _127
REMARK   57  A    between atoms: _127  and  _128
REMARK   58  A    between atoms: _131  and  _133
REMARK   59  A    between atoms: _133  and  _134
REMARK   60  A    between atoms: _136  and  _138
REMARK   61  A    between atoms: _138  and  _139
REMARK   62  A    between atoms: _141  and  _143
REMARK   63  A    between atoms: _143  and  _144
REMARK   64  A    between atoms: _143  and  _146
REMARK   65  A    between atoms: _146  and  _147
REMARK   66  A    between atoms: _150  and  _152
REMARK   67  A    between atoms: _152  and  _153
REMARK   68  A    between atoms: _155  and  _157
REMARK   69  A    between atoms: _157  and  _158
REMARK   70  A    between atoms: _160  and  _162
REMARK   71  A    between atoms: _162  and  _163
REMARK   72  A    between atoms: _162  and  _165
REMARK   73  A    between atoms: _165  and  _166
REMARK   74  A    between atoms: _169  and  _171
REMARK   75  A    between atoms: _171  and  _172
REMARK   76  A    between atoms: _171  and  _174
REMARK   77  A    between atoms: _177  and  _179
REMARK   78  A    between atoms: _179  and  _180
REMARK   79  A    between atoms: _179  and  _182
REMARK   80  A    between atoms: _182  and  _183
REMARK   81  A    between atoms: _187  and  _188
REMARK   82  A    between atoms: _193  and  _195
REMARK   83  A    between atoms: _195  and  _196
REMARK   84  A    between atoms: _195  and  _198
REMARK   85  A    between atoms: _198  and  _199
REMARK   86  A    between atoms: _203  and  _204
REMARK   87  A    between atoms: _209  and  _211
REMARK   88  A    between atoms: _211  and  _212
REMARK   89  A    between atoms: _211  and  _214
REMARK   90  A    between atoms: _217  and  _219
REMARK   91  A    between atoms: _219  and  _220
REMARK   92  A    between atoms: _219  and  _222
REMARK   93  A    between atoms: _222  and  _223
REMARK   94  A    between atoms: _228  and  _230
REMARK   95  A    between atoms: _230  and  _231
REMARK   96  A    between atoms: _230  and  _233
REMARK   97  A    between atoms: _233  and  _234
REMARK   98  A    between atoms: _237  and  _239
REMARK   99  A    between atoms: _239  and  _240
REMARK  100  A    between atoms: _239  and  _242
REMARK  101  A    between atoms: _242  and  _243
REMARK  102  A    between atoms: _246  and  _248
REMARK  103  A    between atoms: _248  and  _249
REMARK  104  A    between atoms: _251  and  _253
REMARK  105  A    between atoms: _253  and  _254
REMARK  106  A    between atoms: _253  and  _256
REMARK  107  A    between atoms: _256  and  _257
REMARK  108  A    between atoms: _257  and  _258
REMARK  109  A    between atoms: _258  and  _259
REMARK  110  A    between atoms: _268  and  _270
REMARK  111  A    between atoms: _270  and  _271
REMARK  112  A    between atoms: _270  and  _273
REMARK  113  A    between atoms: _273  and  _274
REMARK  114  A    between atoms: _279  and  _281
REMARK  115  A    between atoms: _281  and  _282
REMARK  116  A    between atoms: _281  and  _284
REMARK  117  A    between atoms: _284  and  _285
REMARK  118  A    between atoms: _285  and  _286
REMARK  119  A    between atoms: _286  and  _287
REMARK  120  A    between atoms: _296  and  _298
REMARK  121  A    between atoms: _298  and  _299
REMARK  122  A    between atoms: _298  and  _301
REMARK  123  A    between atoms: _301  and  _302
REMARK  124  A    between atoms: _305  and  _307
REMARK  125  A    between atoms: _307  and  _308
REMARK  126  A    between atoms: _307  and  _310
REMARK  127  A    between atoms: _310  and  _311
REMARK  128  A    between atoms: _314  and  _316
REMARK  129  A    between atoms: _316  and  _317
REMARK  130  A    between atoms: _316  and  _319
REMARK  131  A    between atoms: _319  and  _320
REMARK  132  A    between atoms: _323  and  _325
REMARK  133  A    between atoms: _325  and  _326
REMARK  134  A    between atoms: _325  and  _328
REMARK  135  A    between atoms: _328  and  _329
REMARK  136  A    between atoms: _332  and  _334
REMARK  137  A    between atoms: _334  and  _335
REMARK  138  A    between atoms: _337  and  _339
REMARK  139  A    between atoms: _339  and  _340
REMARK  140  A    between atoms: _343  and  _345
REMARK  141  A    between atoms: _345  and  _346
REMARK  142  A    between atoms: _345  and  _348
REMARK  143  A    between atoms: _348  and  _349
REMARK  144  A    between atoms: _352  and  _354
REMARK  145  A    between atoms: _354  and  _355
REMARK  146  A    between atoms: _354  and  _357
REMARK  147  A    between atoms: _357  and  _358
REMARK  148  A    between atoms: _361  and  _363
REMARK  149  A    between atoms: _363  and  _364
REMARK  150  A    between atoms: _363  and  _366
REMARK  151  A    between atoms: _366  and  _367
REMARK  152  A    between atoms: _370  and  _372
REMARK  153  A    between atoms: _372  and  _373
REMARK  154  A    between atoms: _372  and  _375
REMARK  155  A    between atoms: _378  and  _380
REMARK  156  A    between atoms: _380  and  _381
REMARK  157  A    between atoms: _380  and  _383
REMARK  158  A    between atoms: _383  and  _384
REMARK  159  A    between atoms: _387  and  _389
REMARK  160  A    between atoms: _389  and  _390
REMARK  161  A    between atoms: _392  and  _394
REMARK  162  A    between atoms: _394  and  _395
REMARK  163  A    between atoms: _397  and  _399
REMARK  164  A    between atoms: _399  and  _400
REMARK  165  A    between atoms: _399  and  _402
REMARK  166  A    between atoms: _402  and  _403
REMARK  167  A    between atoms: _406  and  _408
REMARK  168  A    between atoms: _408  and  _409
REMARK  169  A    between atoms: _411  and  _413
REMARK  170  A    between atoms: _413  and  _414
REMARK  171  A    between atoms: _416  and  _418
REMARK  172  A    between atoms: _418  and  _419
REMARK  173  A    between atoms: _418  and  _421
REMARK  174  A    between atoms: _421  and  _422
REMARK  175  A    between atoms: _425  and  _427
REMARK  176  A    between atoms: _427  and  _428
REMARK  177  A    between atoms: _427  and  _430
REMARK  178  A    between atoms: _430  and  _431
REMARK  179  A    between atoms: _434  and  _436
REMARK  180  A    between atoms: _436  and  _437
REMARK  181  A    between atoms: _436  and  _439
REMARK  182  A    between atoms: _439  and  _440
REMARK  183  A    between atoms: _444  and  _445
REMARK  184  A    between atoms: _450  and  _452
REMARK  185  A    between atoms: _452  and  _453
REMARK  186  A    between atoms: _452  and  _455
REMARK  187  A    between atoms: _458  and  _460
REMARK  188  A    between atoms: _460  and  _461
REMARK  189  A    between atoms: _460  and  _463
REMARK  190  A    between atoms: _463  and  _464
REMARK  191  A    between atoms: _469  and  _471
REMARK  192  A    between atoms: _471  and  _472
REMARK  193  A    between atoms: _471  and  _474
REMARK  194  A    between atoms: _474  and  _475
REMARK  195  A    between atoms: _478  and  _480
REMARK  196  A    between atoms: _480  and  _481
REMARK  197  A    between atoms: _480  and  _483
REMARK  198  A    between atoms: _483  and  _484
REMARK  199  A    between atoms: _487  and  _489
REMARK  200  A    between atoms: _489  and  _490
REMARK  201  A    between atoms: _492  and  _494
REMARK  202  A    between atoms: _494  and  _495
REMARK  203  A    between atoms: _494  and  _497
REMARK  204  A    between atoms: _497  and  _498
REMARK  205  A    between atoms: _498  and  _499
REMARK  206  A    between atoms: _499  and  _500
REMARK  207  A    between atoms: _509  and  _511
REMARK  208  A    between atoms: _511  and  _512
REMARK  209  A    between atoms: _511  and  _514
REMARK  210  A    between atoms: _514  and  _515
REMARK                            x       y       z     vdW  Elec       q    Type
REMARK                         _______ _______ _______ _____ _____    ______ ____
ROOT
ATOM      1  CA  LEU A   1     -16.806  -5.047 -13.309  0.00  0.00    +0.133 C 
ENDROOT
BRANCH   1   2
ATOM      2  N   LEU A   1     -18.227  -5.163 -13.560  0.00  0.00    -0.239 NA
ATOM      3  H   LEU A   1     -18.880  -4.934 -12.784  0.00  0.00    +0.142 HD
ENDBRANCH   1   2
BRANCH   1   4
ATOM      4  C   LEU A   1     -16.296  -6.262 -12.552  0.00  0.00    +0.224 C 
ATOM      5  O   LEU A   1     -16.930  -6.751 -11.588  0.00  0.00    -0.287 OA
ENDBRANCH   1   4
BRANCH   1   6
ATOM      6  CB  LEU A   1     -16.568  -3.755 -12.486  0.00  0.00    +0.025 C 
BRANCH   6   7
ATOM      7  CG  LEU A   1     -17.193  -2.467 -13.016  0.00  0.00    +0.002 C 
ATOM      8  CD2 LEU A   1     -16.776  -1.350 -12.053  0.00  0.00    +0.000 C 
ATOM      9  CD1 LEU A   1     -16.641  -2.201 -14.425  0.00  0.00    +0.000 C 
ENDBRANCH   6   7
ENDBRANCH   1   6
TORSDOF 4
REMARK  Name = ../refined-set-2016/4i8z/4i8z_pocket.pdb
REMARK  210 active torsions:
REMARK  status: ('A' for Active; 'I' for Inactive)
REMARK    1  A    between atoms: _1  and  _3
REMARK    2  A    between atoms: _3  and  _4
REMARK    3  A    between atoms: _3  and  _6
REMARK    4  A    between atoms: _6  and  _7
REMARK    5  A    between atoms: _7  and  _8
REMARK    6  A    between atoms: _8  and  _9
REMARK    7  A    between atoms: _18  and  _20
REMARK    8  A    between atoms: _20  and  _21
REMARK    9  A    between atoms: _20  and  _23
REMARK   10  A    between atoms: _23  and  _24
REMARK   11  A    between atoms: _27  and  _29
REMARK   12  A    between atoms: _29  and  _30
REMARK   13  A    between atoms: _29  and  _32
REMARK   14  A    between atoms: _32  and  _33
REMARK   15  A    between atoms: _36  and  _38
REMARK   16  A    between atoms: _38  and  _39
REMARK   17  A    between atoms: _38  and  _41
REMARK   18  A    between atoms: _41  and  _42
REMARK   19  A    between atoms: _45  and  _47
REMARK   20  A    between atoms: _47  and  _48
REMARK   21  A    between atoms: _47  and  _50
REMARK   22  A    between atoms: _50  and  _51
REMARK   23  A    between atoms: _54  and  _56
REMARK   24  A    between atoms: _56  and  _57
REMARK   25  A    between atoms: _59  and  _61
REMARK   26  A    between atoms: _61  and  _62
REMARK   27  A    between atoms: _65  and  _67
REMARK   28  A    between atoms: _67  and  _68
REMARK   29  A    between atoms: _67  and  _70
REMARK   30  A    between atoms: _70  and  _71
REMARK   31  A    between atoms: _74  and  _76
REMARK   32  A    between atoms: _76  and  _77
REMARK   33  A    between atoms: _76  and  _79
REMARK   34  A    between atoms: _79  and  _80
REMARK   35  A    between atoms: _83  and  _85
REMARK   36  A    between atoms: _85  and  _86
REMARK   37  A    between atoms: _85  and  _88
REMARK   38  A    between atoms: _88  and  _89
REMARK   39  A    between atoms: _92  and  _94
REMARK   40  A    between atoms: _94  and  _95
REMARK   41  A    between atoms: _94  and  _97
REMARK   42  A    between atoms: _100  and  _102
REMARK   43  A    between atoms: _102  and  _103
REMARK   44  A    between atoms: _102  and  _105
REMARK   45  A    between atoms: _105  and  _106
REMARK   46  A    between atoms: _106  and  _107
REMARK   47  A    between atoms: _107  and  _108
REMARK   48  A    between atoms: _108  and  _109
REMARK   49  A    between atoms: _113  and  _115
REMARK   50  A    between atoms: _115  and  _116
REMARK   51  A    between atoms: _115  and  _118
REMARK   52  A    between atoms: _118  and  _119
REMARK   53  A    between atoms: _119  and  _120
REMARK   54  A    between atoms: _122  and  _124
REMARK   55  A    between atoms: _124  and  _125
REMARK   56  A    between atoms: _124  and  _127
REMARK   57  A    between atoms: _127  and  _128
REMARK   58  A    between atoms: _131  and  _133
REMARK   59  A    between atoms: _133  and  _134
REMARK   60  A    between atoms: _136  and  _138
REMARK   61  A    between atoms: _138  and  _139
REMARK   62  A    between atoms: _141  and  _143
REMARK   63  A    between atoms: _143  and  _144
REMARK   64  A    between atoms: _143  and  _146
REMARK   65  A    between atoms: _146  and  _147
REMARK   66  A    between atoms: _150  and  _152
REMARK   67  A    between atoms: _152  and  _153
REMARK   68  A    between atoms: _155  and  _157
REMARK   69  A    between atoms: _157  and  _158
REMARK   70  A    between atoms: _160  and  _162
REMARK   71  A    between atoms: _162  and  _163
REMARK   72  A    between atoms: _162  and  _165
REMARK   73  A    between atoms: _165  and  _166
REMARK   74  A    between atoms: _169  and  _171
REMARK   75  A    between atoms: _171  and  _172
REMARK   76  A    between atoms: _171  and  _174
REMARK   77  A    between atoms: _177  and  _179
REMARK   78  A    between atoms: _179  and  _180
REMARK   79  A    between atoms: _179  and  _182
REMARK   80  A    between atoms: _182  and  _183
REMARK   81  A    between atoms: _187  and  _188
REMARK   82  A    between atoms: _193  and  _195
REMARK   83  A    between atoms: _195  and  _196
REMARK   84  A    between atoms: _195  and  _198
REMARK   85  A    between atoms: _198  and  _199
REMARK   86  A    between atoms: _203  and  _204
REMARK   87  A    between atoms: _209  and  _211
REMARK   88  A    between atoms: _211  and  _212
REMARK   89  A    between atoms: _211  and  _214
REMARK   90  A    between atoms: _217  and  _219
REMARK   91  A    between atoms: _219  and  _220
REMARK   92  A    between atoms: _219  and  _222
REMARK   93  A    between atoms: _222  and  _223
REMARK   94  A    between atoms: _228  and  _230
REMARK   95  A    between atoms: _230  and  _231
REMARK   96  A    between atoms: _230  and  _233
REMARK   97  A    between atoms: _233  and  _234
REMARK   98  A    between atoms: _237  and  _239
REMARK   99  A    between atoms: _239  and  _240
REMARK  100  A    between atoms: _239  and  _242
REMARK  101  A    between atoms: _242  and  _243
REMARK  102  A    between atoms: _246  and  _248
REMARK  103  A    between atoms: _248  and  _249
REMARK  104  A    between atoms: _251  and  _253
REMARK  105  A    between atoms: _253  and  _254
REMARK  106  A    between atoms: _253  and  _256
REMARK  107  A    between atoms: _256  and  _257
REMARK  108  A    between atoms: _257  and  _258
REMARK  109  A    between atoms: _258  and  _259
REMARK  110  A    between atoms: _268  and  _270
REMARK  111  A    between atoms: _270  and  _271
REMARK  112  A    between atoms: _270  and  _273
REMARK  113  A    between atoms: _273  and  _274
REMARK  114  A    between atoms: _279  and  _281
REMARK  115  A    between atoms: _281  and  _282
REMARK  116  A    between atoms: _281  and  _284
REMARK  117  A    between atoms: _284  and  _285
REMARK  118  A    between atoms: _285  and  _286
REMARK  119  A    between atoms: _286  and  _287
REMARK  120  A    between atoms: _296  and  _298
REMARK  121  A    between atoms: _298  and  _299
REMARK  122  A    between atoms: _298  and  _301
REMARK  123  A    between atoms: _301  and  _302
REMARK  124  A    between atoms: _305  and  _307
REMARK  125  A    between atoms: _307  and  _308
REMARK  126  A    between atoms: _307  and  _310
REMARK  127  A    between atoms: _310  and  _311
REMARK  128  A    between atoms: _314  and  _316
REMARK  129  A    between atoms: _316  and  _317
REMARK  130  A    between atoms: _316  and  _319
REMARK  131  A    between atoms: _319  and  _320
REMARK  132  A    between atoms: _323  and  _325
REMARK  133  A    between atoms: _325  and  _326
REMARK  134  A    between atoms: _325  and  _328
REMARK  135  A    between atoms: _328  and  _329
REMARK  136  A    between atoms: _332  and  _334
REMARK  137  A    between atoms: _334  and  _335
REMARK  138  A    between atoms: _337  and  _339
REMARK  139  A    between atoms: _339  and  _340
REMARK  140  A    between atoms: _343  and  _345
REMARK  141  A    between atoms: _345  and  _346
REMARK  142  A    between atoms: _345  and  _348
REMARK  143  A    between atoms: _348  and  _349
REMARK  144  A    between atoms: _352  and  _354
REMARK  145  A    between atoms: _354  and  _355
REMARK  146  A    between atoms: _354  and  _357
REMARK  147  A    between atoms: _357  and  _358
REMARK  148  A    between atoms: _361  and  _363
REMARK  149  A    between atoms: _363  and  _364
REMARK  150  A    between atoms: _363  and  _366
REMARK  151  A    between atoms: _366  and  _367
REMARK  152  A    between atoms: _370  and  _372
REMARK  153  A    between atoms: _372  and  _373
REMARK  154  A    between atoms: _372  and  _375
REMARK  155  A    between atoms: _378  and  _380
REMARK  156  A    between atoms: _380  and  _381
REMARK  157  A    between atoms: _380  and  _383
REMARK  158  A    between atoms: _383  and  _384
REMARK  159  A    between atoms: _387  and  _389
REMARK  160  A    between atoms: _389  and  _390
REMARK  161  A    between atoms: _392  and  _394
REMARK  162  A    between atoms: _394  and  _395
REMARK  163  A    between atoms: _397  and  _399
REMARK  164  A    between atoms: _399  and  _400
REMARK  165  A    between atoms: _399  and  _402
REMARK  166  A    between atoms: _402  and  _403
REMARK  167  A    between atoms: _406  and  _408
REMARK  168  A    between atoms: _408  and  _409
REMARK  169  A    between atoms: _411  and  _413
REMARK  170  A    between atoms: _413  and  _414
REMARK  171  A    between atoms: _416  and  _418
REMARK  172  A    between atoms: _418  and  _419
REMARK  173  A    between atoms: _418  and  _421
REMARK  174  A    between atoms: _421  and  _422
REMARK  175  A    between atoms: _425  and  _427
REMARK  176  A    between atoms: _427  and  _428
REMARK  177  A    between atoms: _427  and  _430
REMARK  178  A    between atoms: _430  and  _431
REMARK  179  A    between atoms: _434  and  _436
REMARK  180  A    between atoms: _436  and  _437
REMARK  181  A    between atoms: _436  and  _439
REMARK  182  A    between atoms: _439  and  _440
REMARK  183  A    between atoms: _444  and  _445
REMARK  184  A    between atoms: _450  and  _452
REMARK  185  A    between atoms: _452  and  _453
REMARK  186  A    between atoms: _452  and  _455
REMARK  187  A    between atoms: _458  and  _460
REMARK  188  A    between atoms: _460  and  _461
REMARK  189  A    between atoms: _460  and  _463
REMARK  190  A    between atoms: _463  and  _464
REMARK  191  A    between atoms: _469  and  _471
REMARK  192  A    between atoms: _471  and  _472
REMARK  193  A    between atoms: _471  and  _474
REMARK  194  A    between atoms: _474  and  _475
REMARK  195  A    between atoms: _478  and  _480
REMARK  196  A    between atoms: _480  and  _481
REMARK  197  A    between atoms: _480  and  _483
REMARK  198  A    between atoms: _483  and  _484
REMARK  199  A    between atoms: _487  and  _489
REMARK  200  A    between atoms: _489  and  _490
REMARK  201  A    between atoms: _492  and  _494
REMARK  202  A    between atoms: _494  and  _495
REMARK  203  A    between atoms: _494  and  _497
REMARK  204  A    between atoms: _497  and  _498
REMARK  205  A    between atoms: _498  and  _499
REMARK  206  A    between atoms: _499  and  _500
REMARK  207  A    between atoms: _509  and  _511
REMARK  208  A    between atoms: _511  and  _512
REMARK  209  A    between atoms: _511  and  _514
REMARK  210  A    between atoms: _514  and  _515
REMARK                            x       y       z     vdW  Elec       q    Type
REMARK                         _______ _______ _______ _____ _____    ______ ____
ROOT
ATOM      1  C   ILE A   5     -22.621  -5.989  -6.307  0.00  0.00    +0.241 C 
ATOM      2  N   ILE A   6     -23.962  -5.884  -6.114  0.00  0.00    -0.297 N 
ATOM      3  H   ILE A   6     -24.359  -6.138  -5.187  0.00  0.00    +0.150 HD
ATOM      4  O   ILE A   5     -22.095  -5.821  -7.408  0.00  0.00    -0.273 OA
ENDROOT
BRANCH   2   5
ATOM      5  CA  ILE A   6     -24.861  -5.427  -7.166  0.00  0.00    +0.149 C 
BRANCH   5   6
ATOM      6  C   ILE A   6     -25.123  -3.961  -6.942  0.00  0.00    +0.241 C 
ATOM      7  O   ILE A   6     -25.681  -3.593  -5.893  0.00  0.00    -0.273 OA
ATOM      8  N   GLY A   7     -24.719  -3.143  -7.911  0.00  0.00    -0.295 N 
ATOM      9  H   GLY A   7     -24.366  -3.558  -8.797  0.00  0.00    +0.150 HD
BRANCH   8  10
ATOM     10  CA  GLY A   7     -24.750  -1.691  -7.786  0.00  0.00    +0.176 C 
BRANCH  10  11
ATOM     11  C   GLY A   7     -25.951  -1.076  -8.441  0.00  0.00    +0.243 C 
ATOM     12  N   ARG A   8     -26.027   0.261  -8.378  0.00  0.00    -0.297 N 
ATOM     13  H   ARG A   8     -25.212   0.821  -8.055  0.00  0.00    +0.150 HD
ATOM     14  O   GLY A   7     -26.804  -1.770  -9.011  0.00  0.00    -0.273 OA
BRANCH  12  15
ATOM     15  CA  ARG A   8     -27.254   0.912  -8.765  0.00  0.00    +0.149 C 
BRANCH  15  16
ATOM     16  C   ARG A   8     -27.498   0.727 -10.252  0.00  0.00    +0.241 C 
ATOM     17  O   ARG A   8     -28.656   0.752 -10.696  0.00  0.00    -0.273 OA
ATOM     18  N   ASN A   9     -26.435   0.480 -11.010  0.00  0.00    -0.298 N 
ATOM     19  H   ASN A   9     -25.492   0.387 -10.580  0.00  0.00    +0.150 HD
BRANCH  18  20
ATOM     20  CA  ASN A   9     -26.606   0.340 -12.455  0.00  0.00    +0.146 C 
BRANCH  20  21
ATOM     21  C   ASN A   9     -27.571  -0.794 -12.803  0.00  0.00    +0.227 C 
ATOM     22  O   ASN A   9     -28.298  -0.732 -13.826  0.00  0.00    -0.286 OA
ENDBRANCH  20  21
BRANCH  20  23
ATOM     23  CB  ASN A   9     -25.274   0.165 -13.175  0.00  0.00    +0.112 C 
BRANCH  23  24
ATOM     24  CG  ASN A   9     -24.687  -1.201 -12.966  0.00  0.00    +0.222 C 
ATOM     25  OD1 ASN A   9     -24.544  -1.645 -11.851  0.00  0.00    -0.275 OA
ATOM     26  ND2 ASN A   9     -24.379  -1.897 -14.066  0.00  0.00    -0.329 N 
ATOM     27 HD21 ASN A   9     -23.999  -2.862 -13.982  0.00  0.00    +0.145 HD
ATOM     28 HD22 ASN A   9     -24.519  -1.474 -15.005  0.00  0.00    +0.145 HD
ENDBRANCH  23  24
ENDBRANCH  20  23
ENDBRANCH  18  20
ENDBRANCH  15  16
BRANCH  15  29
ATOM     29  CB  ARG A   8     -27.180   2.388  -8.412  0.00  0.00    +0.033 C 
BRANCH  29  30
ATOM     30  CG  ARG A   8     -27.193   2.618  -6.871  0.00  0.00    +0.045 C 
BRANCH  30  31
ATOM     31  CD  ARG A   8     -27.310   4.164  -6.556  0.00  0.00    +0.174 C 
BRANCH  31  32
ATOM     32  NE  ARG A   8     -26.160   4.900  -7.105  0.00  0.00    -0.265 N 
ATOM     33  HE  ARG A   8     -25.293   4.908  -6.531  0.00  0.00    +0.259 HD
ATOM     34  CZ  ARG A   8     -26.117   5.561  -8.269  0.00  0.00    +0.342 C 
ATOM     35  NH2 ARG A   8     -24.979   6.150  -8.593  0.00  0.00    -0.292 N 
ATOM     36 HH21 ARG A   8     -24.161   6.089  -7.953  0.00  0.00    +0.255 HD
ATOM     37 HH22 ARG A   8     -24.901   6.674  -9.488  0.00  0.00    +0.255 HD
ATOM     38  NH1 ARG A   8     -27.197   5.725  -9.071  0.00  0.00    -0.292 N 
ATOM     39 HH11 ARG A   8     -28.117   5.328  -8.792  0.00  0.00    +0.255 HD
ATOM     40 HH12 ARG A   8     -27.106   6.248  -9.965  0.00  0.00    +0.255 HD
ENDBRANCH  31  32
ENDBRANCH  30  31
ENDBRANCH  29  30
ENDBRANCH  15  29
ENDBRANCH  12  15
ENDBRANCH  10  11
ENDBRANCH   8  10
ENDBRANCH   5   6
BRANCH   5  41
ATOM     41  CB  ILE A   6     -26.237  -6.097  -7.081  0.00  0.00    +0.027 C 
ATOM     42  CG2 ILE A   6     -27.165  -5.593  -8.275  0.00  0.00    +0.002 C 
BRANCH  41  43
ATOM     43  CG1 ILE A   6     -26.102  -7.626  -7.126  0.00  0.00    +0.002 C 
ATOM     44  CD1 ILE A   6     -25.222  -8.143  -8.280  0.00  0.00    +0.000 C 
ENDBRANCH  41  43
ENDBRANCH   5  41
ENDBRANCH   2   5
BRANCH   1  45
ATOM     45  CA  ILE A   5     -21.750  -6.279  -5.106  0.00  0.00    +0.149 C 
BRANCH  45  48
ATOM     46  C   ASN A   4     -20.858  -8.512  -4.580  0.00  0.00    +0.241 C 
ATOM     47  O   ASN A   4     -21.582  -8.685  -3.596  0.00  0.00    -0.273 OA
ATOM     48  N   ILE A   5     -20.905  -7.450  -5.378  0.00  0.00    -0.297 N 
ATOM     49  H   ILE A   5     -20.316  -7.448  -6.235  0.00  0.00    +0.150 HD
BRANCH  46  50
ATOM     50  CA  ASN A   4     -19.857  -9.561  -4.941  0.00  0.00    +0.158 C 
BRANCH  50  53
ATOM     51  C   VAL A   3     -18.254  -9.053  -3.190  0.00  0.00    +0.241 C 
ATOM     52  O   VAL A   3     -17.915  -7.995  -3.744  0.00  0.00    -0.273 OA
ATOM     53  N   ASN A   4     -19.116  -9.910  -3.752  0.00  0.00    -0.297 N 
ATOM     54  H   ASN A   4     -19.255 -10.847  -3.323  0.00  0.00    +0.150 HD
BRANCH  51  55
ATOM     55  CA  VAL A   3     -17.613  -9.437  -1.855  0.00  0.00    +0.149 C 
BRANCH  55  58
ATOM     56  C   PRO A   2     -15.257  -9.534  -1.237  0.00  0.00    +0.242 C 
ATOM     57  O   PRO A   2     -15.407 -10.627  -0.695  0.00  0.00    -0.273 OA
ATOM     58  N   VAL A   3     -16.261  -8.863  -1.803  0.00  0.00    -0.297 N 
ATOM     59  H   VAL A   3     -16.085  -7.923  -2.212  0.00  0.00    +0.150 HD
BRANCH  56  62
ATOM     60  C   THR A   1     -13.608  -8.209  -3.468  0.00  0.00    +0.248 C 
ATOM     61  N   PRO A   2     -13.700  -7.817  -2.188  0.00  0.00    -0.249 N 
ATOM     62  CA  PRO A   2     -13.880  -8.884  -1.173  0.00  0.00    +0.160 C 
ATOM     63  CB  PRO A   2     -13.807  -8.150   0.178  0.00  0.00    +0.057 C 
ATOM     64  CG  PRO A   2     -13.453  -6.746  -0.095  0.00  0.00    -0.008 C 
ATOM     65  CD  PRO A   2     -13.433  -6.501  -1.593  0.00  0.00    +0.063 C 
ATOM     66  O   THR A   1     -13.626  -9.403  -3.806  0.00  0.00    -0.273 OA
BRANCH  60  67
ATOM     67  CA  THR A   1     -13.462  -7.116  -4.539  0.00  0.00    +0.172 C 
BRANCH  67  68
ATOM     68  CB  THR A   1     -14.857  -6.815  -5.097  0.00  0.00    +0.135 C 
ATOM     69  CG2 THR A   1     -15.432  -8.022  -5.860  0.00  0.00    +0.034 C 
BRANCH  68  70
ATOM     70  OG1 THR A   1     -15.715  -6.454  -4.008  0.00  0.00    -0.383 OA
ATOM     71  HG1 THR A   1     -16.621  -6.257  -4.355  0.00  0.00    +0.210 HD
ENDBRANCH  68  70
ENDBRANCH  67  68
BRANCH  67  72
ATOM     72  N   THR A   1     -12.595  -7.637  -5.596  0.00  0.00    -0.236 NA
ATOM     73  H   THR A   1     -13.015  -7.953  -6.493  0.00  0.00    +0.142 HD
ENDBRANCH  67  72
ENDBRANCH  60  67
ENDBRANCH  56  62
ENDBRANCH  55  58
BRANCH  55  74
ATOM     74  CB  VAL A   3     -18.502  -8.972  -0.633  0.00  0.00    +0.027 C 
ATOM     75  CG2 VAL A   3     -17.742  -9.016   0.687  0.00  0.00    +0.002 C 
ATOM     76  CG1 VAL A   3     -18.946  -7.630  -0.829  0.00  0.00    +0.002 C 
ENDBRANCH  55  74
ENDBRANCH  51  55
ENDBRANCH  50  53
BRANCH  50  77
ATOM     77  CB  ASN A   4     -20.627 -10.774  -5.473  0.00  0.00    +0.114 C 
BRANCH  77  78
ATOM     78  CG  ASN A   4     -19.683 -11.917  -5.878  0.00  0.00    +0.222 C 
ATOM     79  ND2 ASN A   4     -20.085 -13.178  -5.607  0.00  0.00    -0.329 N 
ATOM     80 HD21 ASN A   4     -21.002 -13.343  -5.144  0.00  0.00    +0.145 HD
ATOM     81 HD22 ASN A   4     -19.478 -13.983  -5.861  0.00  0.00    +0.145 HD
ATOM     82  OD1 ASN A   4     -18.602 -11.661  -6.427  0.00  0.00    -0.275 OA
ENDBRANCH  77  78
ENDBRANCH  50  77
ENDBRANCH  46  50
ENDBRANCH  45  48
BRANCH  45  83
ATOM     83  CB  ILE A   5     -20.827  -4.995  -5.053  0.00  0.00    +0.027 C 
ATOM     84  CG2 ILE A   5     -21.678  -3.734  -5.236  0.00  0.00    +0.002 C 
BRANCH  83  85
ATOM     85  CG1 ILE A   5     -19.981  -4.972  -3.788  0.00  0.00    +0.002 C 
ATOM     86  CD1 ILE A   5     -20.821  -4.972  -2.580  0.00  0.00    +0.000 C 
ENDBRANCH  83  85
ENDBRANCH  45  83
ENDBRANCH   1  45
TORSDOF 32
REMARK  Name = ../refined-set-2016/4i8z/4i8z_pocket.pdb
REMARK  210 active torsions:
REMARK  status: ('A' for Active; 'I' for Inactive)
REMARK    1  A    between atoms: _1  and  _3
REMARK    2  A    between atoms: _3  and  _4
REMARK    3  A    between atoms: _3  and  _6
REMARK    4  A    between atoms: _6  and  _7
REMARK    5  A    between atoms: _7  and  _8
REMARK    6  A    between atoms: _8  and  _9
REMARK    7  A    between atoms: _18  and  _20
REMARK    8  A    between atoms: _20  and  _21
REMARK    9  A    between atoms: _20  and  _23
REMARK   10  A    between atoms: _23  and  _24
REMARK   11  A    between atoms: _27  and  _29
REMARK   12  A    between atoms: _29  and  _30
REMARK   13  A    between atoms: _29  and  _32
REMARK   14  A    between atoms: _32  and  _33
REMARK   15  A    between atoms: _36  and  _38
REMARK   16  A    between atoms: _38  and  _39
REMARK   17  A    between atoms: _38  and  _41
REMARK   18  A    between atoms: _41  and  _42
REMARK   19  A    between atoms: _45  and  _47
REMARK   20  A    between atoms: _47  and  _48
REMARK   21  A    between atoms: _47  and  _50
REMARK   22  A    between atoms: _50  and  _51
REMARK   23  A    between atoms: _54  and  _56
REMARK   24  A    between atoms: _56  and  _57
REMARK   25  A    between atoms: _59  and  _61
REMARK   26  A    between atoms: _61  and  _62
REMARK   27  A    between atoms: _65  and  _67
REMARK   28  A    between atoms: _67  and  _68
REMARK   29  A    between atoms: _67  and  _70
REMARK   30  A    between atoms: _70  and  _71
REMARK   31  A    between atoms: _74  and  _76
REMARK   32  A    between atoms: _76  and  _77
REMARK   33  A    between atoms: _76  and  _79
REMARK   34  A    between atoms: _79  and  _80
REMARK   35  A    between atoms: _83  and  _85
REMARK   36  A    between atoms: _85  and  _86
REMARK   37  A    between atoms: _85  and  _88
REMARK   38  A    between atoms: _88  and  _89
REMARK   39  A    between atoms: _92  and  _94
REMARK   40  A    between atoms: _94  and  _95
REMARK   41  A    between atoms: _94  and  _97
REMARK   42  A    between atoms: _100  and  _102
REMARK   43  A    between atoms: _102  and  _103
REMARK   44  A    between atoms: _102  and  _105
REMARK   45  A    between atoms: _105  and  _106
REMARK   46  A    between atoms: _106  and  _107
REMARK   47  A    between atoms: _107  and  _108
REMARK   48  A    between atoms: _108  and  _109
REMARK   49  A    between atoms: _113  and  _115
REMARK   50  A    between atoms: _115  and  _116
REMARK   51  A    between atoms: _115  and  _118
REMARK   52  A    between atoms: _118  and  _119
REMARK   53  A    between atoms: _119  and  _120
REMARK   54  A    between atoms: _122  and  _124
REMARK   55  A    between atoms: _124  and  _125
REMARK   56  A    between atoms: _124  and  _127
REMARK   57  A    between atoms: _127  and  _128
REMARK   58  A    between atoms: _131  and  _133
REMARK   59  A    between atoms: _133  and  _134
REMARK   60  A    between atoms: _136  and  _138
REMARK   61  A    between atoms: _138  and  _139
REMARK   62  A    between atoms: _141  and  _143
REMARK   63  A    between atoms: _143  and  _144
REMARK   64  A    between atoms: _143  and  _146
REMARK   65  A    between atoms: _146  and  _147
REMARK   66  A    between atoms: _150  and  _152
REMARK   67  A    between atoms: _152  and  _153
REMARK   68  A    between atoms: _155  and  _157
REMARK   69  A    between atoms: _157  and  _158
REMARK   70  A    between atoms: _160  and  _162
REMARK   71  A    between atoms: _162  and  _163
REMARK   72  A    between atoms: _162  and  _165
REMARK   73  A    between atoms: _165  and  _166
REMARK   74  A    between atoms: _169  and  _171
REMARK   75  A    between atoms: _171  and  _172
REMARK   76  A    between atoms: _171  and  _174
REMARK   77  A    between atoms: _177  and  _179
REMARK   78  A    between atoms: _179  and  _180
REMARK   79  A    between atoms: _179  and  _182
REMARK   80  A    between atoms: _182  and  _183
REMARK   81  A    between atoms: _187  and  _188
REMARK   82  A    between atoms: _193  and  _195
REMARK   83  A    between atoms: _195  and  _196
REMARK   84  A    between atoms: _195  and  _198
REMARK   85  A    between atoms: _198  and  _199
REMARK   86  A    between atoms: _203  and  _204
REMARK   87  A    between atoms: _209  and  _211
REMARK   88  A    between atoms: _211  and  _212
REMARK   89  A    between atoms: _211  and  _214
REMARK   90  A    between atoms: _217  and  _219
REMARK   91  A    between atoms: _219  and  _220
REMARK   92  A    between atoms: _219  and  _222
REMARK   93  A    between atoms: _222  and  _223
REMARK   94  A    between atoms: _228  and  _230
REMARK   95  A    between atoms: _230  and  _231
REMARK   96  A    between atoms: _230  and  _233
REMARK   97  A    between atoms: _233  and  _234
REMARK   98  A    between atoms: _237  and  _239
REMARK   99  A    between atoms: _239  and  _240
REMARK  100  A    between atoms: _239  and  _242
REMARK  101  A    between atoms: _242  and  _243
REMARK  102  A    between atoms: _246  and  _248
REMARK  103  A    between atoms: _248  and  _249
REMARK  104  A    between atoms: _251  and  _253
REMARK  105  A    between atoms: _253  and  _254
REMARK  106  A    between atoms: _253  and  _256
REMARK  107  A    between atoms: _256  and  _257
REMARK  108  A    between atoms: _257  and  _258
REMARK  109  A    between atoms: _258  and  _259
REMARK  110  A    between atoms: _268  and  _270
REMARK  111  A    between atoms: _270  and  _271
REMARK  112  A    between atoms: _270  and  _273
REMARK  113  A    between atoms: _273  and  _274
REMARK  114  A    between atoms: _279  and  _281
REMARK  115  A    between atoms: _281  and  _282
REMARK  116  A    between atoms: _281  and  _284
REMARK  117  A    between atoms: _284  and  _285
REMARK  118  A    between atoms: _285  and  _286
REMARK  119  A    between atoms: _286  and  _287
REMARK  120  A    between atoms: _296  and  _298
REMARK  121  A    between atoms: _298  and  _299
REMARK  122  A    between atoms: _298  and  _301
REMARK  123  A    between atoms: _301  and  _302
REMARK  124  A    between atoms: _305  and  _307
REMARK  125  A    between atoms: _307  and  _308
REMARK  126  A    between atoms: _307  and  _310
REMARK  127  A    between atoms: _310  and  _311
REMARK  128  A    between atoms: _314  and  _316
REMARK  129  A    between atoms: _316  and  _317
REMARK  130  A    between atoms: _316  and  _319
REMARK  131  A    between atoms: _319  and  _320
REMARK  132  A    between atoms: _323  and  _325
REMARK  133  A    between atoms: _325  and  _326
REMARK  134  A    between atoms: _325  and  _328
REMARK  135  A    between atoms: _328  and  _329
REMARK  136  A    between atoms: _332  and  _334
REMARK  137  A    between atoms: _334  and  _335
REMARK  138  A    between atoms: _337  and  _339
REMARK  139  A    between atoms: _339  and  _340
REMARK  140  A    between atoms: _343  and  _345
REMARK  141  A    between atoms: _345  and  _346
REMARK  142  A    between atoms: _345  and  _348
REMARK  143  A    between atoms: _348  and  _349
REMARK  144  A    between atoms: _352  and  _354
REMARK  145  A    between atoms: _354  and  _355
REMARK  146  A    between atoms: _354  and  _357
REMARK  147  A    between atoms: _357  and  _358
REMARK  148  A    between atoms: _361  and  _363
REMARK  149  A    between atoms: _363  and  _364
REMARK  150  A    between atoms: _363  and  _366
REMARK  151  A    between atoms: _366  and  _367
REMARK  152  A    between atoms: _370  and  _372
REMARK  153  A    between atoms: _372  and  _373
REMARK  154  A    between atoms: _372  and  _375
REMARK  155  A    between atoms: _378  and  _380
REMARK  156  A    between atoms: _380  and  _381
REMARK  157  A    between atoms: _380  and  _383
REMARK  158  A    between atoms: _383  and  _384
REMARK  159  A    between atoms: _387  and  _389
REMARK  160  A    between atoms: _389  and  _390
REMARK  161  A    between atoms: _392  and  _394
REMARK  162  A    between atoms: _394  and  _395
REMARK  163  A    between atoms: _397  and  _399
REMARK  164  A    between atoms: _399  and  _400
REMARK  165  A    between atoms: _399  and  _402
REMARK  166  A    between atoms: _402  and  _403
REMARK  167  A    between atoms: _406  and  _408
REMARK  168  A    between atoms: _408  and  _409
REMARK  169  A    between atoms: _411  and  _413
REMARK  170  A    between atoms: _413  and  _414
REMARK  171  A    between atoms: _416  and  _418
REMARK  172  A    between atoms: _418  and  _419
REMARK  173  A    between atoms: _418  and  _421
REMARK  174  A    between atoms: _421  and  _422
REMARK  175  A    between atoms: _425  and  _427
REMARK  176  A    between atoms: _427  and  _428
REMARK  177  A    between atoms: _427  and  _430
REMARK  178  A    between atoms: _430  and  _431
REMARK  179  A    between atoms: _434  and  _436
REMARK  180  A    between atoms: _436  and  _437
REMARK  181  A    between atoms: _436  and  _439
REMARK  182  A    between atoms: _439  and  _440
REMARK  183  A    between atoms: _444  and  _445
REMARK  184  A    between atoms: _450  and  _452
REMARK  185  A    between atoms: _452  and  _453
REMARK  186  A    between atoms: _452  and  _455
REMARK  187  A    between atoms: _458  and  _460
REMARK  188  A    between atoms: _460  and  _461
REMARK  189  A    between atoms: _460  and  _463
REMARK  190  A    between atoms: _463  and  _464
REMARK  191  A    between atoms: _469  and  _471
REMARK  192  A    between atoms: _471  and  _472
REMARK  193  A    between atoms: _471  and  _474
REMARK  194  A    between atoms: _474  and  _475
REMARK  195  A    between atoms: _478  and  _480
REMARK  196  A    between atoms: _480  and  _481
REMARK  197  A    between atoms: _480  and  _483
REMARK  198  A    between atoms: _483  and  _484
REMARK  199  A    between atoms: _487  and  _489
REMARK  200  A    between atoms: _489  and  _490
REMARK  201  A    between atoms: _492  and  _494
REMARK  202  A    between atoms: _494  and  _495
REMARK  203  A    between atoms: _494  and  _497
REMARK  204  A    between atoms: _497  and  _498
REMARK  205  A    between atoms: _498  and  _499
REMARK  206  A    between atoms: _499  and  _500
REMARK  207  A    between atoms: _509  and  _511
REMARK  208  A    between atoms: _511  and  _512
REMARK  209  A    between atoms: _511  and  _514
REMARK  210  A    between atoms: _514  and  _515
REMARK                            x       y       z     vdW  Elec       q    Type
REMARK                         _______ _______ _______ _____ _____    ______ ____
ROOT
ATOM      1  O   HOH     1     -24.764  -5.055   4.287  0.00  0.00    +0.000 OA
ENDROOT
TORSDOF 0
REMARK  Name = ../refined-set-2016/4i8z/4i8z_pocket.pdb
REMARK  210 active torsions:
REMARK  status: ('A' for Active; 'I' for Inactive)
REMARK    1  A    between atoms: _1  and  _3
REMARK    2  A    between atoms: _3  and  _4
REMARK    3  A    between atoms: _3  and  _6
REMARK    4  A    between atoms: _6  and  _7
REMARK    5  A    between atoms: _7  and  _8
REMARK    6  A    between atoms: _8  and  _9
REMARK    7  A    between atoms: _18  and  _20
REMARK    8  A    between atoms: _20  and  _21
REMARK    9  A    between atoms: _20  and  _23
REMARK   10  A    between atoms: _23  and  _24
REMARK   11  A    between atoms: _27  and  _29
REMARK   12  A    between atoms: _29  and  _30
REMARK   13  A    between atoms: _29  and  _32
REMARK   14  A    between atoms: _32  and  _33
REMARK   15  A    between atoms: _36  and  _38
REMARK   16  A    between atoms: _38  and  _39
REMARK   17  A    between atoms: _38  and  _41
REMARK   18  A    between atoms: _41  and  _42
REMARK   19  A    between atoms: _45  and  _47
REMARK   20  A    between atoms: _47  and  _48
REMARK   21  A    between atoms: _47  and  _50
REMARK   22  A    between atoms: _50  and  _51
REMARK   23  A    between atoms: _54  and  _56
REMARK   24  A    between atoms: _56  and  _57
REMARK   25  A    between atoms: _59  and  _61
REMARK   26  A    between atoms: _61  and  _62
REMARK   27  A    between atoms: _65  and  _67
REMARK   28  A    between atoms: _67  and  _68
REMARK   29  A    between atoms: _67  and  _70
REMARK   30  A    between atoms: _70  and  _71
REMARK   31  A    between atoms: _74  and  _76
REMARK   32  A    between atoms: _76  and  _77
REMARK   33  A    between atoms: _76  and  _79
REMARK   34  A    between atoms: _79  and  _80
REMARK   35  A    between atoms: _83  and  _85
REMARK   36  A    between atoms: _85  and  _86
REMARK   37  A    between atoms: _85  and  _88
REMARK   38  A    between atoms: _88  and  _89
REMARK   39  A    between atoms: _92  and  _94
REMARK   40  A    between atoms: _94  and  _95
REMARK   41  A    between atoms: _94  and  _97
REMARK   42  A    between atoms: _100  and  _102
REMARK   43  A    between atoms: _102  and  _103
REMARK   44  A    between atoms: _102  and  _105
REMARK   45  A    between atoms: _105  and  _106
REMARK   46  A    between atoms: _106  and  _107
REMARK   47  A    between atoms: _107  and  _108
REMARK   48  A    between atoms: _108  and  _109
REMARK   49  A    between atoms: _113  and  _115
REMARK   50  A    between atoms: _115  and  _116
REMARK   51  A    between atoms: _115  and  _118
REMARK   52  A    between atoms: _118  and  _119
REMARK   53  A    between atoms: _119  and  _120
REMARK   54  A    between atoms: _122  and  _124
REMARK   55  A    between atoms: _124  and  _125
REMARK   56  A    between atoms: _124  and  _127
REMARK   57  A    between atoms: _127  and  _128
REMARK   58  A    between atoms: _131  and  _133
REMARK   59  A    between atoms: _133  and  _134
REMARK   60  A    between atoms: _136  and  _138
REMARK   61  A    between atoms: _138  and  _139
REMARK   62  A    between atoms: _141  and  _143
REMARK   63  A    between atoms: _143  and  _144
REMARK   64  A    between atoms: _143  and  _146
REMARK   65  A    between atoms: _146  and  _147
REMARK   66  A    between atoms: _150  and  _152
REMARK   67  A    between atoms: _152  and  _153
REMARK   68  A    between atoms: _155  and  _157
REMARK   69  A    between atoms: _157  and  _158
REMARK   70  A    between atoms: _160  and  _162
REMARK   71  A    between atoms: _162  and  _163
REMARK   72  A    between atoms: _162  and  _165
REMARK   73  A    between atoms: _165  and  _166
REMARK   74  A    between atoms: _169  and  _171
REMARK   75  A    between atoms: _171  and  _172
REMARK   76  A    between atoms: _171  and  _174
REMARK   77  A    between atoms: _177  and  _179
REMARK   78  A    between atoms: _179  and  _180
REMARK   79  A    between atoms: _179  and  _182
REMARK   80  A    between atoms: _182  and  _183
REMARK   81  A    between atoms: _187  and  _188
REMARK   82  A    between atoms: _193  and  _195
REMARK   83  A    between atoms: _195  and  _196
REMARK   84  A    between atoms: _195  and  _198
REMARK   85  A    between atoms: _198  and  _199
REMARK   86  A    between atoms: _203  and  _204
REMARK   87  A    between atoms: _209  and  _211
REMARK   88  A    between atoms: _211  and  _212
REMARK   89  A    between atoms: _211  and  _214
REMARK   90  A    between atoms: _217  and  _219
REMARK   91  A    between atoms: _219  and  _220
REMARK   92  A    between atoms: _219  and  _222
REMARK   93  A    between atoms: _222  and  _223
REMARK   94  A    between atoms: _228  and  _230
REMARK   95  A    between atoms: _230  and  _231
REMARK   96  A    between atoms: _230  and  _233
REMARK   97  A    between atoms: _233  and  _234
REMARK   98  A    between atoms: _237  and  _239
REMARK   99  A    between atoms: _239  and  _240
REMARK  100  A    between atoms: _239  and  _242
REMARK  101  A    between atoms: _242  and  _243
REMARK  102  A    between atoms: _246  and  _248
REMARK  103  A    between atoms: _248  and  _249
REMARK  104  A    between atoms: _251  and  _253
REMARK  105  A    between atoms: _253  and  _254
REMARK  106  A    between atoms: _253  and  _256
REMARK  107  A    between atoms: _256  and  _257
REMARK  108  A    between atoms: _257  and  _258
REMARK  109  A    between atoms: _258  and  _259
REMARK  110  A    between atoms: _268  and  _270
REMARK  111  A    between atoms: _270  and  _271
REMARK  112  A    between atoms: _270  and  _273
REMARK  113  A    between atoms: _273  and  _274
REMARK  114  A    between atoms: _279  and  _281
REMARK  115  A    between atoms: _281  and  _282
REMARK  116  A    between atoms: _281  and  _284
REMARK  117  A    between atoms: _284  and  _285
REMARK  118  A    between atoms: _285  and  _286
REMARK  119  A    between atoms: _286  and  _287
REMARK  120  A    between atoms: _296  and  _298
REMARK  121  A    between atoms: _298  and  _299
REMARK  122  A    between atoms: _298  and  _301
REMARK  123  A    between atoms: _301  and  _302
REMARK  124  A    between atoms: _305  and  _307
REMARK  125  A    between atoms: _307  and  _308
REMARK  126  A    between atoms: _307  and  _310
REMARK  127  A    between atoms: _310  and  _311
REMARK  128  A    between atoms: _314  and  _316
REMARK  129  A    between atoms: _316  and  _317
REMARK  130  A    between atoms: _316  and  _319
REMARK  131  A    between atoms: _319  and  _320
REMARK  132  A    between atoms: _323  and  _325
REMARK  133  A    between atoms: _325  and  _326
REMARK  134  A    between atoms: _325  and  _328
REMARK  135  A    between atoms: _328  and  _329
REMARK  136  A    between atoms: _332  and  _334
REMARK  137  A    between atoms: _334  and  _335
REMARK  138  A    between atoms: _337  and  _339
REMARK  139  A    between atoms: _339  and  _340
REMARK  140  A    between atoms: _343  and  _345
REMARK  141  A    between atoms: _345  and  _346
REMARK  142  A    between atoms: _345  and  _348
REMARK  143  A    between atoms: _348  and  _349
REMARK  144  A    between atoms: _352  and  _354
REMARK  145  A    between atoms: _354  and  _355
REMARK  146  A    between atoms: _354  and  _357
REMARK  147  A    between atoms: _357  and  _358
REMARK  148  A    between atoms: _361  and  _363
REMARK  149  A    between atoms: _363  and  _364
REMARK  150  A    between atoms: _363  and  _366
REMARK  151  A    between atoms: _366  and  _367
REMARK  152  A    between atoms: _370  and  _372
REMARK  153  A    between atoms: _372  and  _373
REMARK  154  A    between atoms: _372  and  _375
REMARK  155  A    between atoms: _378  and  _380
REMARK  156  A    between atoms: _380  and  _381
REMARK  157  A    between atoms: _380  and  _383
REMARK  158  A    between atoms: _383  and  _384
REMARK  159  A    between atoms: _387  and  _389
REMARK  160  A    between atoms: _389  and  _390
REMARK  161  A    between atoms: _392  and  _394
REMARK  162  A    between atoms: _394  and  _395
REMARK  163  A    between atoms: _397  and  _399
REMARK  164  A    between atoms: _399  and  _400
REMARK  165  A    between atoms: _399  and  _402
REMARK  166  A    between atoms: _402  and  _403
REMARK  167  A    between atoms: _406  and  _408
REMARK  168  A    between atoms: _408  and  _409
REMARK  169  A    between atoms: _411  and  _413
REMARK  170  A    between atoms: _413  and  _414
REMARK  171  A    between atoms: _416  and  _418
REMARK  172  A    between atoms: _418  and  _419
REMARK  173  A    between atoms: _418  and  _421
REMARK  174  A    between atoms: _421  and  _422
REMARK  175  A    between atoms: _425  and  _427
REMARK  176  A    between atoms: _427  and  _428
REMARK  177  A    between atoms: _427  and  _430
REMARK  178  A    between atoms: _430  and  _431
REMARK  179  A    between atoms: _434  and  _436
REMARK  180  A    between atoms: _436  and  _437
REMARK  181  A    between atoms: _436  and  _439
REMARK  182  A    between atoms: _439  and  _440
REMARK  183  A    between atoms: _444  and  _445
REMARK  184  A    between atoms: _450  and  _452
REMARK  185  A    between atoms: _452  and  _453
REMARK  186  A    between atoms: _452  and  _455
REMARK  187  A    between atoms: _458  and  _460
REMARK  188  A    between atoms: _460  and  _461
REMARK  189  A    between atoms: _460  and  _463
REMARK  190  A    between atoms: _463  and  _464
REMARK  191  A    between atoms: _469  and  _471
REMARK  192  A    between atoms: _471  and  _472
REMARK  193  A    between atoms: _471  and  _474
REMARK  194  A    between atoms: _474  and  _475
REMARK  195  A    between atoms: _478  and  _480
REMARK  196  A    between atoms: _480  and  _481
REMARK  197  A    between atoms: _480  and  _483
REMARK  198  A    between atoms: _483  and  _484
REMARK  199  A    between atoms: _487  and  _489
REMARK  200  A    between atoms: _489  and  _490
REMARK  201  A    between atoms: _492  and  _494
REMARK  202  A    between atoms: _494  and  _495
REMARK  203  A    between atoms: _494  and  _497
REMARK  204  A    between atoms: _497  and  _498
REMARK  205  A    between atoms: _498  and  _499
REMARK  206  A    between atoms: _499  and  _500
REMARK  207  A    between atoms: _509  and  _511
REMARK  208  A    between atoms: _511  and  _512
REMARK  209  A    between atoms: _511  and  _514
REMARK  210  A    between atoms: _514  and  _515
REMARK                            x       y       z     vdW  Elec       q    Type
REMARK                         _______ _______ _______ _____ _____    ______ ____
ROOT
ATOM      1  O   HOH     1     -21.886  -5.565   4.081  0.00  0.00    +0.000 OA
ENDROOT
TORSDOF 0
REMARK  Name = ../refined-set-2016/4i8z/4i8z_pocket.pdb
REMARK  210 active torsions:
REMARK  status: ('A' for Active; 'I' for Inactive)
REMARK    1  A    between atoms: _1  and  _3
REMARK    2  A    between atoms: _3  and  _4
REMARK    3  A    between atoms: _3  and  _6
REMARK    4  A    between atoms: _6  and  _7
REMARK    5  A    between atoms: _7  and  _8
REMARK    6  A    between atoms: _8  and  _9
REMARK    7  A    between atoms: _18  and  _20
REMARK    8  A    between atoms: _20  and  _21
REMARK    9  A    between atoms: _20  and  _23
REMARK   10  A    between atoms: _23  and  _24
REMARK   11  A    between atoms: _27  and  _29
REMARK   12  A    between atoms: _29  and  _30
REMARK   13  A    between atoms: _29  and  _32
REMARK   14  A    between atoms: _32  and  _33
REMARK   15  A    between atoms: _36  and  _38
REMARK   16  A    between atoms: _38  and  _39
REMARK   17  A    between atoms: _38  and  _41
REMARK   18  A    between atoms: _41  and  _42
REMARK   19  A    between atoms: _45  and  _47
REMARK   20  A    between atoms: _47  and  _48
REMARK   21  A    between atoms: _47  and  _50
REMARK   22  A    between atoms: _50  and  _51
REMARK   23  A    between atoms: _54  and  _56
REMARK   24  A    between atoms: _56  and  _57
REMARK   25  A    between atoms: _59  and  _61
REMARK   26  A    between atoms: _61  and  _62
REMARK   27  A    between atoms: _65  and  _67
REMARK   28  A    between atoms: _67  and  _68
REMARK   29  A    between atoms: _67  and  _70
REMARK   30  A    between atoms: _70  and  _71
REMARK   31  A    between atoms: _74  and  _76
REMARK   32  A    between atoms: _76  and  _77
REMARK   33  A    between atoms: _76  and  _79
REMARK   34  A    between atoms: _79  and  _80
REMARK   35  A    between atoms: _83  and  _85
REMARK   36  A    between atoms: _85  and  _86
REMARK   37  A    between atoms: _85  and  _88
REMARK   38  A    between atoms: _88  and  _89
REMARK   39  A    between atoms: _92  and  _94
REMARK   40  A    between atoms: _94  and  _95
REMARK   41  A    between atoms: _94  and  _97
REMARK   42  A    between atoms: _100  and  _102
REMARK   43  A    between atoms: _102  and  _103
REMARK   44  A    between atoms: _102  and  _105
REMARK   45  A    between atoms: _105  and  _106
REMARK   46  A    between atoms: _106  and  _107
REMARK   47  A    between atoms: _107  and  _108
REMARK   48  A    between atoms: _108  and  _109
REMARK   49  A    between atoms: _113  and  _115
REMARK   50  A    between atoms: _115  and  _116
REMARK   51  A    between atoms: _115  and  _118
REMARK   52  A    between atoms: _118  and  _119
REMARK   53  A    between atoms: _119  and  _120
REMARK   54  A    between atoms: _122  and  _124
REMARK   55  A    between atoms: _124  and  _125
REMARK   56  A    between atoms: _124  and  _127
REMARK   57  A    between atoms: _127  and  _128
REMARK   58  A    between atoms: _131  and  _133
REMARK   59  A    between atoms: _133  and  _134
REMARK   60  A    between atoms: _136  and  _138
REMARK   61  A    between atoms: _138  and  _139
REMARK   62  A    between atoms: _141  and  _143
REMARK   63  A    between atoms: _143  and  _144
REMARK   64  A    between atoms: _143  and  _146
REMARK   65  A    between atoms: _146  and  _147
REMARK   66  A    between atoms: _150  and  _152
REMARK   67  A    between atoms: _152  and  _153
REMARK   68  A    between atoms: _155  and  _157
REMARK   69  A    between atoms: _157  and  _158
REMARK   70  A    between atoms: _160  and  _162
REMARK   71  A    between atoms: _162  and  _163
REMARK   72  A    between atoms: _162  and  _165
REMARK   73  A    between atoms: _165  and  _166
REMARK   74  A    between atoms: _169  and  _171
REMARK   75  A    between atoms: _171  and  _172
REMARK   76  A    between atoms: _171  and  _174
REMARK   77  A    between atoms: _177  and  _179
REMARK   78  A    between atoms: _179  and  _180
REMARK   79  A    between atoms: _179  and  _182
REMARK   80  A    between atoms: _182  and  _183
REMARK   81  A    between atoms: _187  and  _188
REMARK   82  A    between atoms: _193  and  _195
REMARK   83  A    between atoms: _195  and  _196
REMARK   84  A    between atoms: _195  and  _198
REMARK   85  A    between atoms: _198  and  _199
REMARK   86  A    between atoms: _203  and  _204
REMARK   87  A    between atoms: _209  and  _211
REMARK   88  A    between atoms: _211  and  _212
REMARK   89  A    between atoms: _211  and  _214
REMARK   90  A    between atoms: _217  and  _219
REMARK   91  A    between atoms: _219  and  _220
REMARK   92  A    between atoms: _219  and  _222
REMARK   93  A    between atoms: _222  and  _223
REMARK   94  A    between atoms: _228  and  _230
REMARK   95  A    between atoms: _230  and  _231
REMARK   96  A    between atoms: _230  and  _233
REMARK   97  A    between atoms: _233  and  _234
REMARK   98  A    between atoms: _237  and  _239
REMARK   99  A    between atoms: _239  and  _240
REMARK  100  A    between atoms: _239  and  _242
REMARK  101  A    between atoms: _242  and  _243
REMARK  102  A    between atoms: _246  and  _248
REMARK  103  A    between atoms: _248  and  _249
REMARK  104  A    between atoms: _251  and  _253
REMARK  105  A    between atoms: _253  and  _254
REMARK  106  A    between atoms: _253  and  _256
REMARK  107  A    between atoms: _256  and  _257
REMARK  108  A    between atoms: _257  and  _258
REMARK  109  A    between atoms: _258  and  _259
REMARK  110  A    between atoms: _268  and  _270
REMARK  111  A    between atoms: _270  and  _271
REMARK  112  A    between atoms: _270  and  _273
REMARK  113  A    between atoms: _273  and  _274
REMARK  114  A    between atoms: _279  and  _281
REMARK  115  A    between atoms: _281  and  _282
REMARK  116  A    between atoms: _281  and  _284
REMARK  117  A    between atoms: _284  and  _285
REMARK  118  A    between atoms: _285  and  _286
REMARK  119  A    between atoms: _286  and  _287
REMARK  120  A    between atoms: _296  and  _298
REMARK  121  A    between atoms: _298  and  _299
REMARK  122  A    between atoms: _298  and  _301
REMARK  123  A    between atoms: _301  and  _302
REMARK  124  A    between atoms: _305  and  _307
REMARK  125  A    between atoms: _307  and  _308
REMARK  126  A    between atoms: _307  and  _310
REMARK  127  A    between atoms: _310  and  _311
REMARK  128  A    between atoms: _314  and  _316
REMARK  129  A    between atoms: _316  and  _317
REMARK  130  A    between atoms: _316  and  _319
REMARK  131  A    between atoms: _319  and  _320
REMARK  132  A    between atoms: _323  and  _325
REMARK  133  A    between atoms: _325  and  _326
REMARK  134  A    between atoms: _325  and  _328
REMARK  135  A    between atoms: _328  and  _329
REMARK  136  A    between atoms: _332  and  _334
REMARK  137  A    between atoms: _334  and  _335
REMARK  138  A    between atoms: _337  and  _339
REMARK  139  A    between atoms: _339  and  _340
REMARK  140  A    between atoms: _343  and  _345
REMARK  141  A    between atoms: _345  and  _346
REMARK  142  A    between atoms: _345  and  _348
REMARK  143  A    between atoms: _348  and  _349
REMARK  144  A    between atoms: _352  and  _354
REMARK  145  A    between atoms: _354  and  _355
REMARK  146  A    between atoms: _354  and  _357
REMARK  147  A    between atoms: _357  and  _358
REMARK  148  A    between atoms: _361  and  _363
REMARK  149  A    between atoms: _363  and  _364
REMARK  150  A    between atoms: _363  and  _366
REMARK  151  A    between atoms: _366  and  _367
REMARK  152  A    between atoms: _370  and  _372
REMARK  153  A    between atoms: _372  and  _373
REMARK  154  A    between atoms: _372  and  _375
REMARK  155  A    between atoms: _378  and  _380
REMARK  156  A    between atoms: _380  and  _381
REMARK  157  A    between atoms: _380  and  _383
REMARK  158  A    between atoms: _383  and  _384
REMARK  159  A    between atoms: _387  and  _389
REMARK  160  A    between atoms: _389  and  _390
REMARK  161  A    between atoms: _392  and  _394
REMARK  162  A    between atoms: _394  and  _395
REMARK  163  A    between atoms: _397  and  _399
REMARK  164  A    between atoms: _399  and  _400
REMARK  165  A    between atoms: _399  and  _402
REMARK  166  A    between atoms: _402  and  _403
REMARK  167  A    between atoms: _406  and  _408
REMARK  168  A    between atoms: _408  and  _409
REMARK  169  A    between atoms: _411  and  _413
REMARK  170  A    between atoms: _413  and  _414
REMARK  171  A    between atoms: _416  and  _418
REMARK  172  A    between atoms: _418  and  _419
REMARK  173  A    between atoms: _418  and  _421
REMARK  174  A    between atoms: _421  and  _422
REMARK  175  A    between atoms: _425  and  _427
REMARK  176  A    between atoms: _427  and  _428
REMARK  177  A    between atoms: _427  and  _430
REMARK  178  A    between atoms: _430  and  _431
REMARK  179  A    between atoms: _434  and  _436
REMARK  180  A    between atoms: _436  and  _437
REMARK  181  A    between atoms: _436  and  _439
REMARK  182  A    between atoms: _439  and  _440
REMARK  183  A    between atoms: _444  and  _445
REMARK  184  A    between atoms: _450  and  _452
REMARK  185  A    between atoms: _452  and  _453
REMARK  186  A    between atoms: _452  and  _455
REMARK  187  A    between atoms: _458  and  _460
REMARK  188  A    between atoms: _460  and  _461
REMARK  189  A    between atoms: _460  and  _463
REMARK  190  A    between atoms: _463  and  _464
REMARK  191  A    between atoms: _469  and  _471
REMARK  192  A    between atoms: _471  and  _472
REMARK  193  A    between atoms: _471  and  _474
REMARK  194  A    between atoms: _474  and  _475
REMARK  195  A    between atoms: _478  and  _480
REMARK  196  A    between atoms: _480  and  _481
REMARK  197  A    between atoms: _480  and  _483
REMARK  198  A    between atoms: _483  and  _484
REMARK  199  A    between atoms: _487  and  _489
REMARK  200  A    between atoms: _489  and  _490
REMARK  201  A    between atoms: _492  and  _494
REMARK  202  A    between atoms: _494  and  _495
REMARK  203  A    between atoms: _494  and  _497
REMARK  204  A    between atoms: _497  and  _498
REMARK  205  A    between atoms: _498  and  _499
REMARK  206  A    between atoms: _499  and  _500
REMARK  207  A    between atoms: _509  and  _511
REMARK  208  A    between atoms: _511  and  _512
REMARK  209  A    between atoms: _511  and  _514
REMARK  210  A    between atoms: _514  and  _515
REMARK                            x       y       z     vdW  Elec       q    Type
REMARK                         _______ _______ _______ _____ _____    ______ ____
ROOT
ATOM      1  O   HOH     1     -20.582   2.229  12.479  0.00  0.00    +0.000 OA
ENDROOT
TORSDOF 0
REMARK  Name = ../refined-set-2016/4i8z/4i8z_pocket.pdb
REMARK  210 active torsions:
REMARK  status: ('A' for Active; 'I' for Inactive)
REMARK    1  A    between atoms: _1  and  _3
REMARK    2  A    between atoms: _3  and  _4
REMARK    3  A    between atoms: _3  and  _6
REMARK    4  A    between atoms: _6  and  _7
REMARK    5  A    between atoms: _7  and  _8
REMARK    6  A    between atoms: _8  and  _9
REMARK    7  A    between atoms: _18  and  _20
REMARK    8  A    between atoms: _20  and  _21
REMARK    9  A    between atoms: _20  and  _23
REMARK   10  A    between atoms: _23  and  _24
REMARK   11  A    between atoms: _27  and  _29
REMARK   12  A    between atoms: _29  and  _30
REMARK   13  A    between atoms: _29  and  _32
REMARK   14  A    between atoms: _32  and  _33
REMARK   15  A    between atoms: _36  and  _38
REMARK   16  A    between atoms: _38  and  _39
REMARK   17  A    between atoms: _38  and  _41
REMARK   18  A    between atoms: _41  and  _42
REMARK   19  A    between atoms: _45  and  _47
REMARK   20  A    between atoms: _47  and  _48
REMARK   21  A    between atoms: _47  and  _50
REMARK   22  A    between atoms: _50  and  _51
REMARK   23  A    between atoms: _54  and  _56
REMARK   24  A    between atoms: _56  and  _57
REMARK   25  A    between atoms: _59  and  _61
REMARK   26  A    between atoms: _61  and  _62
REMARK   27  A    between atoms: _65  and  _67
REMARK   28  A    between atoms: _67  and  _68
REMARK   29  A    between atoms: _67  and  _70
REMARK   30  A    between atoms: _70  and  _71
REMARK   31  A    between atoms: _74  and  _76
REMARK   32  A    between atoms: _76  and  _77
REMARK   33  A    between atoms: _76  and  _79
REMARK   34  A    between atoms: _79  and  _80
REMARK   35  A    between atoms: _83  and  _85
REMARK   36  A    between atoms: _85  and  _86
REMARK   37  A    between atoms: _85  and  _88
REMARK   38  A    between atoms: _88  and  _89
REMARK   39  A    between atoms: _92  and  _94
REMARK   40  A    between atoms: _94  and  _95
REMARK   41  A    between atoms: _94  and  _97
REMARK   42  A    between atoms: _100  and  _102
REMARK   43  A    between atoms: _102  and  _103
REMARK   44  A    between atoms: _102  and  _105
REMARK   45  A    between atoms: _105  and  _106
REMARK   46  A    between atoms: _106  and  _107
REMARK   47  A    between atoms: _107  and  _108
REMARK   48  A    between atoms: _108  and  _109
REMARK   49  A    between atoms: _113  and  _115
REMARK   50  A    between atoms: _115  and  _116
REMARK   51  A    between atoms: _115  and  _118
REMARK   52  A    between atoms: _118  and  _119
REMARK   53  A    between atoms: _119  and  _120
REMARK   54  A    between atoms: _122  and  _124
REMARK   55  A    between atoms: _124  and  _125
REMARK   56  A    between atoms: _124  and  _127
REMARK   57  A    between atoms: _127  and  _128
REMARK   58  A    between atoms: _131  and  _133
REMARK   59  A    between atoms: _133  and  _134
REMARK   60  A    between atoms: _136  and  _138
REMARK   61  A    between atoms: _138  and  _139
REMARK   62  A    between atoms: _141  and  _143
REMARK   63  A    between atoms: _143  and  _144
REMARK   64  A    between atoms: _143  and  _146
REMARK   65  A    between atoms: _146  and  _147
REMARK   66  A    between atoms: _150  and  _152
REMARK   67  A    between atoms: _152  and  _153
REMARK   68  A    between atoms: _155  and  _157
REMARK   69  A    between atoms: _157  and  _158
REMARK   70  A    between atoms: _160  and  _162
REMARK   71  A    between atoms: _162  and  _163
REMARK   72  A    between atoms: _162  and  _165
REMARK   73  A    between atoms: _165  and  _166
REMARK   74  A    between atoms: _169  and  _171
REMARK   75  A    between atoms: _171  and  _172
REMARK   76  A    between atoms: _171  and  _174
REMARK   77  A    between atoms: _177  and  _179
REMARK   78  A    between atoms: _179  and  _180
REMARK   79  A    between atoms: _179  and  _182
REMARK   80  A    between atoms: _182  and  _183
REMARK   81  A    between atoms: _187  and  _188
REMARK   82  A    between atoms: _193  and  _195
REMARK   83  A    between atoms: _195  and  _196
REMARK   84  A    between atoms: _195  and  _198
REMARK   85  A    between atoms: _198  and  _199
REMARK   86  A    between atoms: _203  and  _204
REMARK   87  A    between atoms: _209  and  _211
REMARK   88  A    between atoms: _211  and  _212
REMARK   89  A    between atoms: _211  and  _214
REMARK   90  A    between atoms: _217  and  _219
REMARK   91  A    between atoms: _219  and  _220
REMARK   92  A    between atoms: _219  and  _222
REMARK   93  A    between atoms: _222  and  _223
REMARK   94  A    between atoms: _228  and  _230
REMARK   95  A    between atoms: _230  and  _231
REMARK   96  A    between atoms: _230  and  _233
REMARK   97  A    between atoms: _233  and  _234
REMARK   98  A    between atoms: _237  and  _239
REMARK   99  A    between atoms: _239  and  _240
REMARK  100  A    between atoms: _239  and  _242
REMARK  101  A    between atoms: _242  and  _243
REMARK  102  A    between atoms: _246  and  _248
REMARK  103  A    between atoms: _248  and  _249
REMARK  104  A    between atoms: _251  and  _253
REMARK  105  A    between atoms: _253  and  _254
REMARK  106  A    between atoms: _253  and  _256
REMARK  107  A    between atoms: _256  and  _257
REMARK  108  A    between atoms: _257  and  _258
REMARK  109  A    between atoms: _258  and  _259
REMARK  110  A    between atoms: _268  and  _270
REMARK  111  A    between atoms: _270  and  _271
REMARK  112  A    between atoms: _270  and  _273
REMARK  113  A    between atoms: _273  and  _274
REMARK  114  A    between atoms: _279  and  _281
REMARK  115  A    between atoms: _281  and  _282
REMARK  116  A    between atoms: _281  and  _284
REMARK  117  A    between atoms: _284  and  _285
REMARK  118  A    between atoms: _285  and  _286
REMARK  119  A    between atoms: _286  and  _287
REMARK  120  A    between atoms: _296  and  _298
REMARK  121  A    between atoms: _298  and  _299
REMARK  122  A    between atoms: _298  and  _301
REMARK  123  A    between atoms: _301  and  _302
REMARK  124  A    between atoms: _305  and  _307
REMARK  125  A    between atoms: _307  and  _308
REMARK  126  A    between atoms: _307  and  _310
REMARK  127  A    between atoms: _310  and  _311
REMARK  128  A    between atoms: _314  and  _316
REMARK  129  A    between atoms: _316  and  _317
REMARK  130  A    between atoms: _316  and  _319
REMARK  131  A    between atoms: _319  and  _320
REMARK  132  A    between atoms: _323  and  _325
REMARK  133  A    between atoms: _325  and  _326
REMARK  134  A    between atoms: _325  and  _328
REMARK  135  A    between atoms: _328  and  _329
REMARK  136  A    between atoms: _332  and  _334
REMARK  137  A    between atoms: _334  and  _335
REMARK  138  A    between atoms: _337  and  _339
REMARK  139  A    between atoms: _339  and  _340
REMARK  140  A    between atoms: _343  and  _345
REMARK  141  A    between atoms: _345  and  _346
REMARK  142  A    between atoms: _345  and  _348
REMARK  143  A    between atoms: _348  and  _349
REMARK  144  A    between atoms: _352  and  _354
REMARK  145  A    between atoms: _354  and  _355
REMARK  146  A    between atoms: _354  and  _357
REMARK  147  A    between atoms: _357  and  _358
REMARK  148  A    between atoms: _361  and  _363
REMARK  149  A    between atoms: _363  and  _364
REMARK  150  A    between atoms: _363  and  _366
REMARK  151  A    between atoms: _366  and  _367
REMARK  152  A    between atoms: _370  and  _372
REMARK  153  A    between atoms: _372  and  _373
REMARK  154  A    between atoms: _372  and  _375
REMARK  155  A    between atoms: _378  and  _380
REMARK  156  A    between atoms: _380  and  _381
REMARK  157  A    between atoms: _380  and  _383
REMARK  158  A    between atoms: _383  and  _384
REMARK  159  A    between atoms: _387  and  _389
REMARK  160  A    between atoms: _389  and  _390
REMARK  161  A    between atoms: _392  and  _394
REMARK  162  A    between atoms: _394  and  _395
REMARK  163  A    between atoms: _397  and  _399
REMARK  164  A    between atoms: _399  and  _400
REMARK  165  A    between atoms: _399  and  _402
REMARK  166  A    between atoms: _402  and  _403
REMARK  167  A    between atoms: _406  and  _408
REMARK  168  A    between atoms: _408  and  _409
REMARK  169  A    between atoms: _411  and  _413
REMARK  170  A    between atoms: _413  and  _414
REMARK  171  A    between atoms: _416  and  _418
REMARK  172  A    between atoms: _418  and  _419
REMARK  173  A    between atoms: _418  and  _421
REMARK  174  A    between atoms: _421  and  _422
REMARK  175  A    between atoms: _425  and  _427
REMARK  176  A    between atoms: _427  and  _428
REMARK  177  A    between atoms: _427  and  _430
REMARK  178  A    between atoms: _430  and  _431
REMARK  179  A    between atoms: _434  and  _436
REMARK  180  A    between atoms: _436  and  _437
REMARK  181  A    between atoms: _436  and  _439
REMARK  182  A    between atoms: _439  and  _440
REMARK  183  A    between atoms: _444  and  _445
REMARK  184  A    between atoms: _450  and  _452
REMARK  185  A    between atoms: _452  and  _453
REMARK  186  A    between atoms: _452  and  _455
REMARK  187  A    between atoms: _458  and  _460
REMARK  188  A    between atoms: _460  and  _461
REMARK  189  A    between atoms: _460  and  _463
REMARK  190  A    between atoms: _463  and  _464
REMARK  191  A    between atoms: _469  and  _471
REMARK  192  A    between atoms: _471  and  _472
REMARK  193  A    between atoms: _471  and  _474
REMARK  194  A    between atoms: _474  and  _475
REMARK  195  A    between atoms: _478  and  _480
REMARK  196  A    between atoms: _480  and  _481
REMARK  197  A    between atoms: _480  and  _483
REMARK  198  A    between atoms: _483  and  _484
REMARK  199  A    between atoms: _487  and  _489
REMARK  200  A    between atoms: _489  and  _490
REMARK  201  A    between atoms: _492  and  _494
REMARK  202  A    between atoms: _494  and  _495
REMARK  203  A    between atoms: _494  and  _497
REMARK  204  A    between atoms: _497  and  _498
REMARK  205  A    between atoms: _498  and  _499
REMARK  206  A    between atoms: _499  and  _500
REMARK  207  A    between atoms: _509  and  _511
REMARK  208  A    between atoms: _511  and  _512
REMARK  209  A    between atoms: _511  and  _514
REMARK  210  A    between atoms: _514  and  _515
REMARK                            x       y       z     vdW  Elec       q    Type
REMARK                         _______ _______ _______ _____ _____    ______ ____
ROOT
ATOM      1  O   HOH     1     -19.255  12.265   1.774  0.00  0.00    +0.000 OA
ENDROOT
TORSDOF 0
REMARK  Name = ../refined-set-2016/4i8z/4i8z_pocket.pdb
REMARK  210 active torsions:
REMARK  status: ('A' for Active; 'I' for Inactive)
REMARK    1  A    between atoms: _1  and  _3
REMARK    2  A    between atoms: _3  and  _4
REMARK    3  A    between atoms: _3  and  _6
REMARK    4  A    between atoms: _6  and  _7
REMARK    5  A    between atoms: _7  and  _8
REMARK    6  A    between atoms: _8  and  _9
REMARK    7  A    between atoms: _18  and  _20
REMARK    8  A    between atoms: _20  and  _21
REMARK    9  A    between atoms: _20  and  _23
REMARK   10  A    between atoms: _23  and  _24
REMARK   11  A    between atoms: _27  and  _29
REMARK   12  A    between atoms: _29  and  _30
REMARK   13  A    between atoms: _29  and  _32
REMARK   14  A    between atoms: _32  and  _33
REMARK   15  A    between atoms: _36  and  _38
REMARK   16  A    between atoms: _38  and  _39
REMARK   17  A    between atoms: _38  and  _41
REMARK   18  A    between atoms: _41  and  _42
REMARK   19  A    between atoms: _45  and  _47
REMARK   20  A    between atoms: _47  and  _48
REMARK   21  A    between atoms: _47  and  _50
REMARK   22  A    between atoms: _50  and  _51
REMARK   23  A    between atoms: _54  and  _56
REMARK   24  A    between atoms: _56  and  _57
REMARK   25  A    between atoms: _59  and  _61
REMARK   26  A    between atoms: _61  and  _62
REMARK   27  A    between atoms: _65  and  _67
REMARK   28  A    between atoms: _67  and  _68
REMARK   29  A    between atoms: _67  and  _70
REMARK   30  A    between atoms: _70  and  _71
REMARK   31  A    between atoms: _74  and  _76
REMARK   32  A    between atoms: _76  and  _77
REMARK   33  A    between atoms: _76  and  _79
REMARK   34  A    between atoms: _79  and  _80
REMARK   35  A    between atoms: _83  and  _85
REMARK   36  A    between atoms: _85  and  _86
REMARK   37  A    between atoms: _85  and  _88
REMARK   38  A    between atoms: _88  and  _89
REMARK   39  A    between atoms: _92  and  _94
REMARK   40  A    between atoms: _94  and  _95
REMARK   41  A    between atoms: _94  and  _97
REMARK   42  A    between atoms: _100  and  _102
REMARK   43  A    between atoms: _102  and  _103
REMARK   44  A    between atoms: _102  and  _105
REMARK   45  A    between atoms: _105  and  _106
REMARK   46  A    between atoms: _106  and  _107
REMARK   47  A    between atoms: _107  and  _108
REMARK   48  A    between atoms: _108  and  _109
REMARK   49  A    between atoms: _113  and  _115
REMARK   50  A    between atoms: _115  and  _116
REMARK   51  A    between atoms: _115  and  _118
REMARK   52  A    between atoms: _118  and  _119
REMARK   53  A    between atoms: _119  and  _120
REMARK   54  A    between atoms: _122  and  _124
REMARK   55  A    between atoms: _124  and  _125
REMARK   56  A    between atoms: _124  and  _127
REMARK   57  A    between atoms: _127  and  _128
REMARK   58  A    between atoms: _131  and  _133
REMARK   59  A    between atoms: _133  and  _134
REMARK   60  A    between atoms: _136  and  _138
REMARK   61  A    between atoms: _138  and  _139
REMARK   62  A    between atoms: _141  and  _143
REMARK   63  A    between atoms: _143  and  _144
REMARK   64  A    between atoms: _143  and  _146
REMARK   65  A    between atoms: _146  and  _147
REMARK   66  A    between atoms: _150  and  _152
REMARK   67  A    between atoms: _152  and  _153
REMARK   68  A    between atoms: _155  and  _157
REMARK   69  A    between atoms: _157  and  _158
REMARK   70  A    between atoms: _160  and  _162
REMARK   71  A    between atoms: _162  and  _163
REMARK   72  A    between atoms: _162  and  _165
REMARK   73  A    between atoms: _165  and  _166
REMARK   74  A    between atoms: _169  and  _171
REMARK   75  A    between atoms: _171  and  _172
REMARK   76  A    between atoms: _171  and  _174
REMARK   77  A    between atoms: _177  and  _179
REMARK   78  A    between atoms: _179  and  _180
REMARK   79  A    between atoms: _179  and  _182
REMARK   80  A    between atoms: _182  and  _183
REMARK   81  A    between atoms: _187  and  _188
REMARK   82  A    between atoms: _193  and  _195
REMARK   83  A    between atoms: _195  and  _196
REMARK   84  A    between atoms: _195  and  _198
REMARK   85  A    between atoms: _198  and  _199
REMARK   86  A    between atoms: _203  and  _204
REMARK   87  A    between atoms: _209  and  _211
REMARK   88  A    between atoms: _211  and  _212
REMARK   89  A    between atoms: _211  and  _214
REMARK   90  A    between atoms: _217  and  _219
REMARK   91  A    between atoms: _219  and  _220
REMARK   92  A    between atoms: _219  and  _222
REMARK   93  A    between atoms: _222  and  _223
REMARK   94  A    between atoms: _228  and  _230
REMARK   95  A    between atoms: _230  and  _231
REMARK   96  A    between atoms: _230  and  _233
REMARK   97  A    between atoms: _233  and  _234
REMARK   98  A    between atoms: _237  and  _239
REMARK   99  A    between atoms: _239  and  _240
REMARK  100  A    between atoms: _239  and  _242
REMARK  101  A    between atoms: _242  and  _243
REMARK  102  A    between atoms: _246  and  _248
REMARK  103  A    between atoms: _248  and  _249
REMARK  104  A    between atoms: _251  and  _253
REMARK  105  A    between atoms: _253  and  _254
REMARK  106  A    between atoms: _253  and  _256
REMARK  107  A    between atoms: _256  and  _257
REMARK  108  A    between atoms: _257  and  _258
REMARK  109  A    between atoms: _258  and  _259
REMARK  110  A    between atoms: _268  and  _270
REMARK  111  A    between atoms: _270  and  _271
REMARK  112  A    between atoms: _270  and  _273
REMARK  113  A    between atoms: _273  and  _274
REMARK  114  A    between atoms: _279  and  _281
REMARK  115  A    between atoms: _281  and  _282
REMARK  116  A    between atoms: _281  and  _284
REMARK  117  A    between atoms: _284  and  _285
REMARK  118  A    between atoms: _285  and  _286
REMARK  119  A    between atoms: _286  and  _287
REMARK  120  A    between atoms: _296  and  _298
REMARK  121  A    between atoms: _298  and  _299
REMARK  122  A    between atoms: _298  and  _301
REMARK  123  A    between atoms: _301  and  _302
REMARK  124  A    between atoms: _305  and  _307
REMARK  125  A    between atoms: _307  and  _308
REMARK  126  A    between atoms: _307  and  _310
REMARK  127  A    between atoms: _310  and  _311
REMARK  128  A    between atoms: _314  and  _316
REMARK  129  A    between atoms: _316  and  _317
REMARK  130  A    between atoms: _316  and  _319
REMARK  131  A    between atoms: _319  and  _320
REMARK  132  A    between atoms: _323  and  _325
REMARK  133  A    between atoms: _325  and  _326
REMARK  134  A    between atoms: _325  and  _328
REMARK  135  A    between atoms: _328  and  _329
REMARK  136  A    between atoms: _332  and  _334
REMARK  137  A    between atoms: _334  and  _335
REMARK  138  A    between atoms: _337  and  _339
REMARK  139  A    between atoms: _339  and  _340
REMARK  140  A    between atoms: _343  and  _345
REMARK  141  A    between atoms: _345  and  _346
REMARK  142  A    between atoms: _345  and  _348
REMARK  143  A    between atoms: _348  and  _349
REMARK  144  A    between atoms: _352  and  _354
REMARK  145  A    between atoms: _354  and  _355
REMARK  146  A    between atoms: _354  and  _357
REMARK  147  A    between atoms: _357  and  _358
REMARK  148  A    between atoms: _361  and  _363
REMARK  149  A    between atoms: _363  and  _364
REMARK  150  A    between atoms: _363  and  _366
REMARK  151  A    between atoms: _366  and  _367
REMARK  152  A    between atoms: _370  and  _372
REMARK  153  A    between atoms: _372  and  _373
REMARK  154  A    between atoms: _372  and  _375
REMARK  155  A    between atoms: _378  and  _380
REMARK  156  A    between atoms: _380  and  _381
REMARK  157  A    between atoms: _380  and  _383
REMARK  158  A    between atoms: _383  and  _384
REMARK  159  A    between atoms: _387  and  _389
REMARK  160  A    between atoms: _389  and  _390
REMARK  161  A    between atoms: _392  and  _394
REMARK  162  A    between atoms: _394  and  _395
REMARK  163  A    between atoms: _397  and  _399
REMARK  164  A    between atoms: _399  and  _400
REMARK  165  A    between atoms: _399  and  _402
REMARK  166  A    between atoms: _402  and  _403
REMARK  167  A    between atoms: _406  and  _408
REMARK  168  A    between atoms: _408  and  _409
REMARK  169  A    between atoms: _411  and  _413
REMARK  170  A    between atoms: _413  and  _414
REMARK  171  A    between atoms: _416  and  _418
REMARK  172  A    between atoms: _418  and  _419
REMARK  173  A    between atoms: _418  and  _421
REMARK  174  A    between atoms: _421  and  _422
REMARK  175  A    between atoms: _425  and  _427
REMARK  176  A    between atoms: _427  and  _428
REMARK  177  A    between atoms: _427  and  _430
REMARK  178  A    between atoms: _430  and  _431
REMARK  179  A    between atoms: _434  and  _436
REMARK  180  A    between atoms: _436  and  _437
REMARK  181  A    between atoms: _436  and  _439
REMARK  182  A    between atoms: _439  and  _440
REMARK  183  A    between atoms: _444  and  _445
REMARK  184  A    between atoms: _450  and  _452
REMARK  185  A    between atoms: _452  and  _453
REMARK  186  A    between atoms: _452  and  _455
REMARK  187  A    between atoms: _458  and  _460
REMARK  188  A    between atoms: _460  and  _461
REMARK  189  A    between atoms: _460  and  _463
REMARK  190  A    between atoms: _463  and  _464
REMARK  191  A    between atoms: _469  and  _471
REMARK  192  A    between atoms: _471  and  _472
REMARK  193  A    between atoms: _471  and  _474
REMARK  194  A    between atoms: _474  and  _475
REMARK  195  A    between atoms: _478  and  _480
REMARK  196  A    between atoms: _480  and  _481
REMARK  197  A    between atoms: _480  and  _483
REMARK  198  A    between atoms: _483  and  _484
REMARK  199  A    between atoms: _487  and  _489
REMARK  200  A    between atoms: _489  and  _490
REMARK  201  A    between atoms: _492  and  _494
REMARK  202  A    between atoms: _494  and  _495
REMARK  203  A    between atoms: _494  and  _497
REMARK  204  A    between atoms: _497  and  _498
REMARK  205  A    between atoms: _498  and  _499
REMARK  206  A    between atoms: _499  and  _500
REMARK  207  A    between atoms: _509  and  _511
REMARK  208  A    between atoms: _511  and  _512
REMARK  209  A    between atoms: _511  and  _514
REMARK  210  A    between atoms: _514  and  _515
REMARK                            x       y       z     vdW  Elec       q    Type
REMARK                         _______ _______ _______ _____ _____    ______ ____
ROOT
ATOM      1  O   HOH     1     -10.560  -5.467   1.949  0.00  0.00    +0.000 OA
ENDROOT
TORSDOF 0
REMARK  Name = ../refined-set-2016/4i8z/4i8z_pocket.pdb
REMARK  210 active torsions:
REMARK  status: ('A' for Active; 'I' for Inactive)
REMARK    1  A    between atoms: _1  and  _3
REMARK    2  A    between atoms: _3  and  _4
REMARK    3  A    between atoms: _3  and  _6
REMARK    4  A    between atoms: _6  and  _7
REMARK    5  A    between atoms: _7  and  _8
REMARK    6  A    between atoms: _8  and  _9
REMARK    7  A    between atoms: _18  and  _20
REMARK    8  A    between atoms: _20  and  _21
REMARK    9  A    between atoms: _20  and  _23
REMARK   10  A    between atoms: _23  and  _24
REMARK   11  A    between atoms: _27  and  _29
REMARK   12  A    between atoms: _29  and  _30
REMARK   13  A    between atoms: _29  and  _32
REMARK   14  A    between atoms: _32  and  _33
REMARK   15  A    between atoms: _36  and  _38
REMARK   16  A    between atoms: _38  and  _39
REMARK   17  A    between atoms: _38  and  _41
REMARK   18  A    between atoms: _41  and  _42
REMARK   19  A    between atoms: _45  and  _47
REMARK   20  A    between atoms: _47  and  _48
REMARK   21  A    between atoms: _47  and  _50
REMARK   22  A    between atoms: _50  and  _51
REMARK   23  A    between atoms: _54  and  _56
REMARK   24  A    between atoms: _56  and  _57
REMARK   25  A    between atoms: _59  and  _61
REMARK   26  A    between atoms: _61  and  _62
REMARK   27  A    between atoms: _65  and  _67
REMARK   28  A    between atoms: _67  and  _68
REMARK   29  A    between atoms: _67  and  _70
REMARK   30  A    between atoms: _70  and  _71
REMARK   31  A    between atoms: _74  and  _76
REMARK   32  A    between atoms: _76  and  _77
REMARK   33  A    between atoms: _76  and  _79
REMARK   34  A    between atoms: _79  and  _80
REMARK   35  A    between atoms: _83  and  _85
REMARK   36  A    between atoms: _85  and  _86
REMARK   37  A    between atoms: _85  and  _88
REMARK   38  A    between atoms: _88  and  _89
REMARK   39  A    between atoms: _92  and  _94
REMARK   40  A    between atoms: _94  and  _95
REMARK   41  A    between atoms: _94  and  _97
REMARK   42  A    between atoms: _100  and  _102
REMARK   43  A    between atoms: _102  and  _103
REMARK   44  A    between atoms: _102  and  _105
REMARK   45  A    between atoms: _105  and  _106
REMARK   46  A    between atoms: _106  and  _107
REMARK   47  A    between atoms: _107  and  _108
REMARK   48  A    between atoms: _108  and  _109
REMARK   49  A    between atoms: _113  and  _115
REMARK   50  A    between atoms: _115  and  _116
REMARK   51  A    between atoms: _115  and  _118
REMARK   52  A    between atoms: _118  and  _119
REMARK   53  A    between atoms: _119  and  _120
REMARK   54  A    between atoms: _122  and  _124
REMARK   55  A    between atoms: _124  and  _125
REMARK   56  A    between atoms: _124  and  _127
REMARK   57  A    between atoms: _127  and  _128
REMARK   58  A    between atoms: _131  and  _133
REMARK   59  A    between atoms: _133  and  _134
REMARK   60  A    between atoms: _136  and  _138
REMARK   61  A    between atoms: _138  and  _139
REMARK   62  A    between atoms: _141  and  _143
REMARK   63  A    between atoms: _143  and  _144
REMARK   64  A    between atoms: _143  and  _146
REMARK   65  A    between atoms: _146  and  _147
REMARK   66  A    between atoms: _150  and  _152
REMARK   67  A    between atoms: _152  and  _153
REMARK   68  A    between atoms: _155  and  _157
REMARK   69  A    between atoms: _157  and  _158
REMARK   70  A    between atoms: _160  and  _162
REMARK   71  A    between atoms: _162  and  _163
REMARK   72  A    between atoms: _162  and  _165
REMARK   73  A    between atoms: _165  and  _166
REMARK   74  A    between atoms: _169  and  _171
REMARK   75  A    between atoms: _171  and  _172
REMARK   76  A    between atoms: _171  and  _174
REMARK   77  A    between atoms: _177  and  _179
REMARK   78  A    between atoms: _179  and  _180
REMARK   79  A    between atoms: _179  and  _182
REMARK   80  A    between atoms: _182  and  _183
REMARK   81  A    between atoms: _187  and  _188
REMARK   82  A    between atoms: _193  and  _195
REMARK   83  A    between atoms: _195  and  _196
REMARK   84  A    between atoms: _195  and  _198
REMARK   85  A    between atoms: _198  and  _199
REMARK   86  A    between atoms: _203  and  _204
REMARK   87  A    between atoms: _209  and  _211
REMARK   88  A    between atoms: _211  and  _212
REMARK   89  A    between atoms: _211  and  _214
REMARK   90  A    between atoms: _217  and  _219
REMARK   91  A    between atoms: _219  and  _220
REMARK   92  A    between atoms: _219  and  _222
REMARK   93  A    between atoms: _222  and  _223
REMARK   94  A    between atoms: _228  and  _230
REMARK   95  A    between atoms: _230  and  _231
REMARK   96  A    between atoms: _230  and  _233
REMARK   97  A    between atoms: _233  and  _234
REMARK   98  A    between atoms: _237  and  _239
REMARK   99  A    between atoms: _239  and  _240
REMARK  100  A    between atoms: _239  and  _242
REMARK  101  A    between atoms: _242  and  _243
REMARK  102  A    between atoms: _246  and  _248
REMARK  103  A    between atoms: _248  and  _249
REMARK  104  A    between atoms: _251  and  _253
REMARK  105  A    between atoms: _253  and  _254
REMARK  106  A    between atoms: _253  and  _256
REMARK  107  A    between atoms: _256  and  _257
REMARK  108  A    between atoms: _257  and  _258
REMARK  109  A    between atoms: _258  and  _259
REMARK  110  A    between atoms: _268  and  _270
REMARK  111  A    between atoms: _270  and  _271
REMARK  112  A    between atoms: _270  and  _273
REMARK  113  A    between atoms: _273  and  _274
REMARK  114  A    between atoms: _279  and  _281
REMARK  115  A    between atoms: _281  and  _282
REMARK  116  A    between atoms: _281  and  _284
REMARK  117  A    between atoms: _284  and  _285
REMARK  118  A    between atoms: _285  and  _286
REMARK  119  A    between atoms: _286  and  _287
REMARK  120  A    between atoms: _296  and  _298
REMARK  121  A    between atoms: _298  and  _299
REMARK  122  A    between atoms: _298  and  _301
REMARK  123  A    between atoms: _301  and  _302
REMARK  124  A    between atoms: _305  and  _307
REMARK  125  A    between atoms: _307  and  _308
REMARK  126  A    between atoms: _307  and  _310
REMARK  127  A    between atoms: _310  and  _311
REMARK  128  A    between atoms: _314  and  _316
REMARK  129  A    between atoms: _316  and  _317
REMARK  130  A    between atoms: _316  and  _319
REMARK  131  A    between atoms: _319  and  _320
REMARK  132  A    between atoms: _323  and  _325
REMARK  133  A    between atoms: _325  and  _326
REMARK  134  A    between atoms: _325  and  _328
REMARK  135  A    between atoms: _328  and  _329
REMARK  136  A    between atoms: _332  and  _334
REMARK  137  A    between atoms: _334  and  _335
REMARK  138  A    between atoms: _337  and  _339
REMARK  139  A    between atoms: _339  and  _340
REMARK  140  A    between atoms: _343  and  _345
REMARK  141  A    between atoms: _345  and  _346
REMARK  142  A    between atoms: _345  and  _348
REMARK  143  A    between atoms: _348  and  _349
REMARK  144  A    between atoms: _352  and  _354
REMARK  145  A    between atoms: _354  and  _355
REMARK  146  A    between atoms: _354  and  _357
REMARK  147  A    between atoms: _357  and  _358
REMARK  148  A    between atoms: _361  and  _363
REMARK  149  A    between atoms: _363  and  _364
REMARK  150  A    between atoms: _363  and  _366
REMARK  151  A    between atoms: _366  and  _367
REMARK  152  A    between atoms: _370  and  _372
REMARK  153  A    between atoms: _372  and  _373
REMARK  154  A    between atoms: _372  and  _375
REMARK  155  A    between atoms: _378  and  _380
REMARK  156  A    between atoms: _380  and  _381
REMARK  157  A    between atoms: _380  and  _383
REMARK  158  A    between atoms: _383  and  _384
REMARK  159  A    between atoms: _387  and  _389
REMARK  160  A    between atoms: _389  and  _390
REMARK  161  A    between atoms: _392  and  _394
REMARK  162  A    between atoms: _394  and  _395
REMARK  163  A    between atoms: _397  and  _399
REMARK  164  A    between atoms: _399  and  _400
REMARK  165  A    between atoms: _399  and  _402
REMARK  166  A    between atoms: _402  and  _403
REMARK  167  A    between atoms: _406  and  _408
REMARK  168  A    between atoms: _408  and  _409
REMARK  169  A    between atoms: _411  and  _413
REMARK  170  A    between atoms: _413  and  _414
REMARK  171  A    between atoms: _416  and  _418
REMARK  172  A    between atoms: _418  and  _419
REMARK  173  A    between atoms: _418  and  _421
REMARK  174  A    between atoms: _421  and  _422
REMARK  175  A    between atoms: _425  and  _427
REMARK  176  A    between atoms: _427  and  _428
REMARK  177  A    between atoms: _427  and  _430
REMARK  178  A    between atoms: _430  and  _431
REMARK  179  A    between atoms: _434  and  _436
REMARK  180  A    between atoms: _436  and  _437
REMARK  181  A    between atoms: _436  and  _439
REMARK  182  A    between atoms: _439  and  _440
REMARK  183  A    between atoms: _444  and  _445
REMARK  184  A    between atoms: _450  and  _452
REMARK  185  A    between atoms: _452  and  _453
REMARK  186  A    between atoms: _452  and  _455
REMARK  187  A    between atoms: _458  and  _460
REMARK  188  A    between atoms: _460  and  _461
REMARK  189  A    between atoms: _460  and  _463
REMARK  190  A    between atoms: _463  and  _464
REMARK  191  A    between atoms: _469  and  _471
REMARK  192  A    between atoms: _471  and  _472
REMARK  193  A    between atoms: _471  and  _474
REMARK  194  A    between atoms: _474  and  _475
REMARK  195  A    between atoms: _478  and  _480
REMARK  196  A    between atoms: _480  and  _481
REMARK  197  A    between atoms: _480  and  _483
REMARK  198  A    between atoms: _483  and  _484
REMARK  199  A    between atoms: _487  and  _489
REMARK  200  A    between atoms: _489  and  _490
REMARK  201  A    between atoms: _492  and  _494
REMARK  202  A    between atoms: _494  and  _495
REMARK  203  A    between atoms: _494  and  _497
REMARK  204  A    between atoms: _497  and  _498
REMARK  205  A    between atoms: _498  and  _499
REMARK  206  A    between atoms: _499  and  _500
REMARK  207  A    between atoms: _509  and  _511
REMARK  208  A    between atoms: _511  and  _512
REMARK  209  A    between atoms: _511  and  _514
REMARK  210  A    between atoms: _514  and  _515
REMARK                            x       y       z     vdW  Elec       q    Type
REMARK                         _______ _______ _______ _____ _____    ______ ____
ROOT
ATOM      1  O   HOH     1     -18.960  -5.852   9.967  0.00  0.00    +0.000 OA
ENDROOT
TORSDOF 0
REMARK  Name = ../refined-set-2016/4i8z/4i8z_pocket.pdb
REMARK  210 active torsions:
REMARK  status: ('A' for Active; 'I' for Inactive)
REMARK    1  A    between atoms: _1  and  _3
REMARK    2  A    between atoms: _3  and  _4
REMARK    3  A    between atoms: _3  and  _6
REMARK    4  A    between atoms: _6  and  _7
REMARK    5  A    between atoms: _7  and  _8
REMARK    6  A    between atoms: _8  and  _9
REMARK    7  A    between atoms: _18  and  _20
REMARK    8  A    between atoms: _20  and  _21
REMARK    9  A    between atoms: _20  and  _23
REMARK   10  A    between atoms: _23  and  _24
REMARK   11  A    between atoms: _27  and  _29
REMARK   12  A    between atoms: _29  and  _30
REMARK   13  A    between atoms: _29  and  _32
REMARK   14  A    between atoms: _32  and  _33
REMARK   15  A    between atoms: _36  and  _38
REMARK   16  A    between atoms: _38  and  _39
REMARK   17  A    between atoms: _38  and  _41
REMARK   18  A    between atoms: _41  and  _42
REMARK   19  A    between atoms: _45  and  _47
REMARK   20  A    between atoms: _47  and  _48
REMARK   21  A    between atoms: _47  and  _50
REMARK   22  A    between atoms: _50  and  _51
REMARK   23  A    between atoms: _54  and  _56
REMARK   24  A    between atoms: _56  and  _57
REMARK   25  A    between atoms: _59  and  _61
REMARK   26  A    between atoms: _61  and  _62
REMARK   27  A    between atoms: _65  and  _67
REMARK   28  A    between atoms: _67  and  _68
REMARK   29  A    between atoms: _67  and  _70
REMARK   30  A    between atoms: _70  and  _71
REMARK   31  A    between atoms: _74  and  _76
REMARK   32  A    between atoms: _76  and  _77
REMARK   33  A    between atoms: _76  and  _79
REMARK   34  A    between atoms: _79  and  _80
REMARK   35  A    between atoms: _83  and  _85
REMARK   36  A    between atoms: _85  and  _86
REMARK   37  A    between atoms: _85  and  _88
REMARK   38  A    between atoms: _88  and  _89
REMARK   39  A    between atoms: _92  and  _94
REMARK   40  A    between atoms: _94  and  _95
REMARK   41  A    between atoms: _94  and  _97
REMARK   42  A    between atoms: _100  and  _102
REMARK   43  A    between atoms: _102  and  _103
REMARK   44  A    between atoms: _102  and  _105
REMARK   45  A    between atoms: _105  and  _106
REMARK   46  A    between atoms: _106  and  _107
REMARK   47  A    between atoms: _107  and  _108
REMARK   48  A    between atoms: _108  and  _109
REMARK   49  A    between atoms: _113  and  _115
REMARK   50  A    between atoms: _115  and  _116
REMARK   51  A    between atoms: _115  and  _118
REMARK   52  A    between atoms: _118  and  _119
REMARK   53  A    between atoms: _119  and  _120
REMARK   54  A    between atoms: _122  and  _124
REMARK   55  A    between atoms: _124  and  _125
REMARK   56  A    between atoms: _124  and  _127
REMARK   57  A    between atoms: _127  and  _128
REMARK   58  A    between atoms: _131  and  _133
REMARK   59  A    between atoms: _133  and  _134
REMARK   60  A    between atoms: _136  and  _138
REMARK   61  A    between atoms: _138  and  _139
REMARK   62  A    between atoms: _141  and  _143
REMARK   63  A    between atoms: _143  and  _144
REMARK   64  A    between atoms: _143  and  _146
REMARK   65  A    between atoms: _146  and  _147
REMARK   66  A    between atoms: _150  and  _152
REMARK   67  A    between atoms: _152  and  _153
REMARK   68  A    between atoms: _155  and  _157
REMARK   69  A    between atoms: _157  and  _158
REMARK   70  A    between atoms: _160  and  _162
REMARK   71  A    between atoms: _162  and  _163
REMARK   72  A    between atoms: _162  and  _165
REMARK   73  A    between atoms: _165  and  _166
REMARK   74  A    between atoms: _169  and  _171
REMARK   75  A    between atoms: _171  and  _172
REMARK   76  A    between atoms: _171  and  _174
REMARK   77  A    between atoms: _177  and  _179
REMARK   78  A    between atoms: _179  and  _180
REMARK   79  A    between atoms: _179  and  _182
REMARK   80  A    between atoms: _182  and  _183
REMARK   81  A    between atoms: _187  and  _188
REMARK   82  A    between atoms: _193  and  _195
REMARK   83  A    between atoms: _195  and  _196
REMARK   84  A    between atoms: _195  and  _198
REMARK   85  A    between atoms: _198  and  _199
REMARK   86  A    between atoms: _203  and  _204
REMARK   87  A    between atoms: _209  and  _211
REMARK   88  A    between atoms: _211  and  _212
REMARK   89  A    between atoms: _211  and  _214
REMARK   90  A    between atoms: _217  and  _219
REMARK   91  A    between atoms: _219  and  _220
REMARK   92  A    between atoms: _219  and  _222
REMARK   93  A    between atoms: _222  and  _223
REMARK   94  A    between atoms: _228  and  _230
REMARK   95  A    between atoms: _230  and  _231
REMARK   96  A    between atoms: _230  and  _233
REMARK   97  A    between atoms: _233  and  _234
REMARK   98  A    between atoms: _237  and  _239
REMARK   99  A    between atoms: _239  and  _240
REMARK  100  A    between atoms: _239  and  _242
REMARK  101  A    between atoms: _242  and  _243
REMARK  102  A    between atoms: _246  and  _248
REMARK  103  A    between atoms: _248  and  _249
REMARK  104  A    between atoms: _251  and  _253
REMARK  105  A    between atoms: _253  and  _254
REMARK  106  A    between atoms: _253  and  _256
REMARK  107  A    between atoms: _256  and  _257
REMARK  108  A    between atoms: _257  and  _258
REMARK  109  A    between atoms: _258  and  _259
REMARK  110  A    between atoms: _268  and  _270
REMARK  111  A    between atoms: _270  and  _271
REMARK  112  A    between atoms: _270  and  _273
REMARK  113  A    between atoms: _273  and  _274
REMARK  114  A    between atoms: _279  and  _281
REMARK  115  A    between atoms: _281  and  _282
REMARK  116  A    between atoms: _281  and  _284
REMARK  117  A    between atoms: _284  and  _285
REMARK  118  A    between atoms: _285  and  _286
REMARK  119  A    between atoms: _286  and  _287
REMARK  120  A    between atoms: _296  and  _298
REMARK  121  A    between atoms: _298  and  _299
REMARK  122  A    between atoms: _298  and  _301
REMARK  123  A    between atoms: _301  and  _302
REMARK  124  A    between atoms: _305  and  _307
REMARK  125  A    between atoms: _307  and  _308
REMARK  126  A    between atoms: _307  and  _310
REMARK  127  A    between atoms: _310  and  _311
REMARK  128  A    between atoms: _314  and  _316
REMARK  129  A    between atoms: _316  and  _317
REMARK  130  A    between atoms: _316  and  _319
REMARK  131  A    between atoms: _319  and  _320
REMARK  132  A    between atoms: _323  and  _325
REMARK  133  A    between atoms: _325  and  _326
REMARK  134  A    between atoms: _325  and  _328
REMARK  135  A    between atoms: _328  and  _329
REMARK  136  A    between atoms: _332  and  _334
REMARK  137  A    between atoms: _334  and  _335
REMARK  138  A    between atoms: _337  and  _339
REMARK  139  A    between atoms: _339  and  _340
REMARK  140  A    between atoms: _343  and  _345
REMARK  141  A    between atoms: _345  and  _346
REMARK  142  A    between atoms: _345  and  _348
REMARK  143  A    between atoms: _348  and  _349
REMARK  144  A    between atoms: _352  and  _354
REMARK  145  A    between atoms: _354  and  _355
REMARK  146  A    between atoms: _354  and  _357
REMARK  147  A    between atoms: _357  and  _358
REMARK  148  A    between atoms: _361  and  _363
REMARK  149  A    between atoms: _363  and  _364
REMARK  150  A    between atoms: _363  and  _366
REMARK  151  A    between atoms: _366  and  _367
REMARK  152  A    between atoms: _370  and  _372
REMARK  153  A    between atoms: _372  and  _373
REMARK  154  A    between atoms: _372  and  _375
REMARK  155  A    between atoms: _378  and  _380
REMARK  156  A    between atoms: _380  and  _381
REMARK  157  A    between atoms: _380  and  _383
REMARK  158  A    between atoms: _383  and  _384
REMARK  159  A    between atoms: _387  and  _389
REMARK  160  A    between atoms: _389  and  _390
REMARK  161  A    between atoms: _392  and  _394
REMARK  162  A    between atoms: _394  and  _395
REMARK  163  A    between atoms: _397  and  _399
REMARK  164  A    between atoms: _399  and  _400
REMARK  165  A    between atoms: _399  and  _402
REMARK  166  A    between atoms: _402  and  _403
REMARK  167  A    between atoms: _406  and  _408
REMARK  168  A    between atoms: _408  and  _409
REMARK  169  A    between atoms: _411  and  _413
REMARK  170  A    between atoms: _413  and  _414
REMARK  171  A    between atoms: _416  and  _418
REMARK  172  A    between atoms: _418  and  _419
REMARK  173  A    between atoms: _418  and  _421
REMARK  174  A    between atoms: _421  and  _422
REMARK  175  A    between atoms: _425  and  _427
REMARK  176  A    between atoms: _427  and  _428
REMARK  177  A    between atoms: _427  and  _430
REMARK  178  A    between atoms: _430  and  _431
REMARK  179  A    between atoms: _434  and  _436
REMARK  180  A    between atoms: _436  and  _437
REMARK  181  A    between atoms: _436  and  _439
REMARK  182  A    between atoms: _439  and  _440
REMARK  183  A    between atoms: _444  and  _445
REMARK  184  A    between atoms: _450  and  _452
REMARK  185  A    between atoms: _452  and  _453
REMARK  186  A    between atoms: _452  and  _455
REMARK  187  A    between atoms: _458  and  _460
REMARK  188  A    between atoms: _460  and  _461
REMARK  189  A    between atoms: _460  and  _463
REMARK  190  A    between atoms: _463  and  _464
REMARK  191  A    between atoms: _469  and  _471
REMARK  192  A    between atoms: _471  and  _472
REMARK  193  A    between atoms: _471  and  _474
REMARK  194  A    between atoms: _474  and  _475
REMARK  195  A    between atoms: _478  and  _480
REMARK  196  A    between atoms: _480  and  _481
REMARK  197  A    between atoms: _480  and  _483
REMARK  198  A    between atoms: _483  and  _484
REMARK  199  A    between atoms: _487  and  _489
REMARK  200  A    between atoms: _489  and  _490
REMARK  201  A    between atoms: _492  and  _494
REMARK  202  A    between atoms: _494  and  _495
REMARK  203  A    between atoms: _494  and  _497
REMARK  204  A    between atoms: _497  and  _498
REMARK  205  A    between atoms: _498  and  _499
REMARK  206  A    between atoms: _499  and  _500
REMARK  207  A    between atoms: _509  and  _511
REMARK  208  A    between atoms: _511  and  _512
REMARK  209  A    between atoms: _511  and  _514
REMARK  210  A    between atoms: _514  and  _515
REMARK                            x       y       z     vdW  Elec       q    Type
REMARK                         _______ _______ _______ _____ _____    ______ ____
ROOT
ATOM      1  O   HOH     1     -14.663  -4.307   7.789  0.00  0.00    +0.000 OA
ENDROOT
TORSDOF 0
REMARK  Name = ../refined-set-2016/4i8z/4i8z_pocket.pdb
REMARK  210 active torsions:
REMARK  status: ('A' for Active; 'I' for Inactive)
REMARK    1  A    between atoms: _1  and  _3
REMARK    2  A    between atoms: _3  and  _4
REMARK    3  A    between atoms: _3  and  _6
REMARK    4  A    between atoms: _6  and  _7
REMARK    5  A    between atoms: _7  and  _8
REMARK    6  A    between atoms: _8  and  _9
REMARK    7  A    between atoms: _18  and  _20
REMARK    8  A    between atoms: _20  and  _21
REMARK    9  A    between atoms: _20  and  _23
REMARK   10  A    between atoms: _23  and  _24
REMARK   11  A    between atoms: _27  and  _29
REMARK   12  A    between atoms: _29  and  _30
REMARK   13  A    between atoms: _29  and  _32
REMARK   14  A    between atoms: _32  and  _33
REMARK   15  A    between atoms: _36  and  _38
REMARK   16  A    between atoms: _38  and  _39
REMARK   17  A    between atoms: _38  and  _41
REMARK   18  A    between atoms: _41  and  _42
REMARK   19  A    between atoms: _45  and  _47
REMARK   20  A    between atoms: _47  and  _48
REMARK   21  A    between atoms: _47  and  _50
REMARK   22  A    between atoms: _50  and  _51
REMARK   23  A    between atoms: _54  and  _56
REMARK   24  A    between atoms: _56  and  _57
REMARK   25  A    between atoms: _59  and  _61
REMARK   26  A    between atoms: _61  and  _62
REMARK   27  A    between atoms: _65  and  _67
REMARK   28  A    between atoms: _67  and  _68
REMARK   29  A    between atoms: _67  and  _70
REMARK   30  A    between atoms: _70  and  _71
REMARK   31  A    between atoms: _74  and  _76
REMARK   32  A    between atoms: _76  and  _77
REMARK   33  A    between atoms: _76  and  _79
REMARK   34  A    between atoms: _79  and  _80
REMARK   35  A    between atoms: _83  and  _85
REMARK   36  A    between atoms: _85  and  _86
REMARK   37  A    between atoms: _85  and  _88
REMARK   38  A    between atoms: _88  and  _89
REMARK   39  A    between atoms: _92  and  _94
REMARK   40  A    between atoms: _94  and  _95
REMARK   41  A    between atoms: _94  and  _97
REMARK   42  A    between atoms: _100  and  _102
REMARK   43  A    between atoms: _102  and  _103
REMARK   44  A    between atoms: _102  and  _105
REMARK   45  A    between atoms: _105  and  _106
REMARK   46  A    between atoms: _106  and  _107
REMARK   47  A    between atoms: _107  and  _108
REMARK   48  A    between atoms: _108  and  _109
REMARK   49  A    between atoms: _113  and  _115
REMARK   50  A    between atoms: _115  and  _116
REMARK   51  A    between atoms: _115  and  _118
REMARK   52  A    between atoms: _118  and  _119
REMARK   53  A    between atoms: _119  and  _120
REMARK   54  A    between atoms: _122  and  _124
REMARK   55  A    between atoms: _124  and  _125
REMARK   56  A    between atoms: _124  and  _127
REMARK   57  A    between atoms: _127  and  _128
REMARK   58  A    between atoms: _131  and  _133
REMARK   59  A    between atoms: _133  and  _134
REMARK   60  A    between atoms: _136  and  _138
REMARK   61  A    between atoms: _138  and  _139
REMARK   62  A    between atoms: _141  and  _143
REMARK   63  A    between atoms: _143  and  _144
REMARK   64  A    between atoms: _143  and  _146
REMARK   65  A    between atoms: _146  and  _147
REMARK   66  A    between atoms: _150  and  _152
REMARK   67  A    between atoms: _152  and  _153
REMARK   68  A    between atoms: _155  and  _157
REMARK   69  A    between atoms: _157  and  _158
REMARK   70  A    between atoms: _160  and  _162
REMARK   71  A    between atoms: _162  and  _163
REMARK   72  A    between atoms: _162  and  _165
REMARK   73  A    between atoms: _165  and  _166
REMARK   74  A    between atoms: _169  and  _171
REMARK   75  A    between atoms: _171  and  _172
REMARK   76  A    between atoms: _171  and  _174
REMARK   77  A    between atoms: _177  and  _179
REMARK   78  A    between atoms: _179  and  _180
REMARK   79  A    between atoms: _179  and  _182
REMARK   80  A    between atoms: _182  and  _183
REMARK   81  A    between atoms: _187  and  _188
REMARK   82  A    between atoms: _193  and  _195
REMARK   83  A    between atoms: _195  and  _196
REMARK   84  A    between atoms: _195  and  _198
REMARK   85  A    between atoms: _198  and  _199
REMARK   86  A    between atoms: _203  and  _204
REMARK   87  A    between atoms: _209  and  _211
REMARK   88  A    between atoms: _211  and  _212
REMARK   89  A    between atoms: _211  and  _214
REMARK   90  A    between atoms: _217  and  _219
REMARK   91  A    between atoms: _219  and  _220
REMARK   92  A    between atoms: _219  and  _222
REMARK   93  A    between atoms: _222  and  _223
REMARK   94  A    between atoms: _228  and  _230
REMARK   95  A    between atoms: _230  and  _231
REMARK   96  A    between atoms: _230  and  _233
REMARK   97  A    between atoms: _233  and  _234
REMARK   98  A    between atoms: _237  and  _239
REMARK   99  A    between atoms: _239  and  _240
REMARK  100  A    between atoms: _239  and  _242
REMARK  101  A    between atoms: _242  and  _243
REMARK  102  A    between atoms: _246  and  _248
REMARK  103  A    between atoms: _248  and  _249
REMARK  104  A    between atoms: _251  and  _253
REMARK  105  A    between atoms: _253  and  _254
REMARK  106  A    between atoms: _253  and  _256
REMARK  107  A    between atoms: _256  and  _257
REMARK  108  A    between atoms: _257  and  _258
REMARK  109  A    between atoms: _258  and  _259
REMARK  110  A    between atoms: _268  and  _270
REMARK  111  A    between atoms: _270  and  _271
REMARK  112  A    between atoms: _270  and  _273
REMARK  113  A    between atoms: _273  and  _274
REMARK  114  A    between atoms: _279  and  _281
REMARK  115  A    between atoms: _281  and  _282
REMARK  116  A    between atoms: _281  and  _284
REMARK  117  A    between atoms: _284  and  _285
REMARK  118  A    between atoms: _285  and  _286
REMARK  119  A    between atoms: _286  and  _287
REMARK  120  A    between atoms: _296  and  _298
REMARK  121  A    between atoms: _298  and  _299
REMARK  122  A    between atoms: _298  and  _301
REMARK  123  A    between atoms: _301  and  _302
REMARK  124  A    between atoms: _305  and  _307
REMARK  125  A    between atoms: _307  and  _308
REMARK  126  A    between atoms: _307  and  _310
REMARK  127  A    between atoms: _310  and  _311
REMARK  128  A    between atoms: _314  and  _316
REMARK  129  A    between atoms: _316  and  _317
REMARK  130  A    between atoms: _316  and  _319
REMARK  131  A    between atoms: _319  and  _320
REMARK  132  A    between atoms: _323  and  _325
REMARK  133  A    between atoms: _325  and  _326
REMARK  134  A    between atoms: _325  and  _328
REMARK  135  A    between atoms: _328  and  _329
REMARK  136  A    between atoms: _332  and  _334
REMARK  137  A    between atoms: _334  and  _335
REMARK  138  A    between atoms: _337  and  _339
REMARK  139  A    between atoms: _339  and  _340
REMARK  140  A    between atoms: _343  and  _345
REMARK  141  A    between atoms: _345  and  _346
REMARK  142  A    between atoms: _345  and  _348
REMARK  143  A    between atoms: _348  and  _349
REMARK  144  A    between atoms: _352  and  _354
REMARK  145  A    between atoms: _354  and  _355
REMARK  146  A    between atoms: _354  and  _357
REMARK  147  A    between atoms: _357  and  _358
REMARK  148  A    between atoms: _361  and  _363
REMARK  149  A    between atoms: _363  and  _364
REMARK  150  A    between atoms: _363  and  _366
REMARK  151  A    between atoms: _366  and  _367
REMARK  152  A    between atoms: _370  and  _372
REMARK  153  A    between atoms: _372  and  _373
REMARK  154  A    between atoms: _372  and  _375
REMARK  155  A    between atoms: _378  and  _380
REMARK  156  A    between atoms: _380  and  _381
REMARK  157  A    between atoms: _380  and  _383
REMARK  158  A    between atoms: _383  and  _384
REMARK  159  A    between atoms: _387  and  _389
REMARK  160  A    between atoms: _389  and  _390
REMARK  161  A    between atoms: _392  and  _394
REMARK  162  A    between atoms: _394  and  _395
REMARK  163  A    between atoms: _397  and  _399
REMARK  164  A    between atoms: _399  and  _400
REMARK  165  A    between atoms: _399  and  _402
REMARK  166  A    between atoms: _402  and  _403
REMARK  167  A    between atoms: _406  and  _408
REMARK  168  A    between atoms: _408  and  _409
REMARK  169  A    between atoms: _411  and  _413
REMARK  170  A    between atoms: _413  and  _414
REMARK  171  A    between atoms: _416  and  _418
REMARK  172  A    between atoms: _418  and  _419
REMARK  173  A    between atoms: _418  and  _421
REMARK  174  A    between atoms: _421  and  _422
REMARK  175  A    between atoms: _425  and  _427
REMARK  176  A    between atoms: _427  and  _428
REMARK  177  A    between atoms: _427  and  _430
REMARK  178  A    between atoms: _430  and  _431
REMARK  179  A    between atoms: _434  and  _436
REMARK  180  A    between atoms: _436  and  _437
REMARK  181  A    between atoms: _436  and  _439
REMARK  182  A    between atoms: _439  and  _440
REMARK  183  A    between atoms: _444  and  _445
REMARK  184  A    between atoms: _450  and  _452
REMARK  185  A    between atoms: _452  and  _453
REMARK  186  A    between atoms: _452  and  _455
REMARK  187  A    between atoms: _458  and  _460
REMARK  188  A    between atoms: _460  and  _461
REMARK  189  A    between atoms: _460  and  _463
REMARK  190  A    between atoms: _463  and  _464
REMARK  191  A    between atoms: _469  and  _471
REMARK  192  A    between atoms: _471  and  _472
REMARK  193  A    between atoms: _471  and  _474
REMARK  194  A    between atoms: _474  and  _475
REMARK  195  A    between atoms: _478  and  _480
REMARK  196  A    between atoms: _480  and  _481
REMARK  197  A    between atoms: _480  and  _483
REMARK  198  A    between atoms: _483  and  _484
REMARK  199  A    between atoms: _487  and  _489
REMARK  200  A    between atoms: _489  and  _490
REMARK  201  A    between atoms: _492  and  _494
REMARK  202  A    between atoms: _494  and  _495
REMARK  203  A    between atoms: _494  and  _497
REMARK  204  A    between atoms: _497  and  _498
REMARK  205  A    between atoms: _498  and  _499
REMARK  206  A    between atoms: _499  and  _500
REMARK  207  A    between atoms: _509  and  _511
REMARK  208  A    between atoms: _511  and  _512
REMARK  209  A    between atoms: _511  and  _514
REMARK  210  A    between atoms: _514  and  _515
REMARK                            x       y       z     vdW  Elec       q    Type
REMARK                         _______ _______ _______ _____ _____    ______ ____
ROOT
ATOM      1  O   HOH     1     -12.617  -6.855   3.632  0.00  0.00    +0.000 OA
ENDROOT
TORSDOF 0
REMARK  Name = ../refined-set-2016/4i8z/4i8z_pocket.pdb
REMARK  210 active torsions:
REMARK  status: ('A' for Active; 'I' for Inactive)
REMARK    1  A    between atoms: _1  and  _3
REMARK    2  A    between atoms: _3  and  _4
REMARK    3  A    between atoms: _3  and  _6
REMARK    4  A    between atoms: _6  and  _7
REMARK    5  A    between atoms: _7  and  _8
REMARK    6  A    between atoms: _8  and  _9
REMARK    7  A    between atoms: _18  and  _20
REMARK    8  A    between atoms: _20  and  _21
REMARK    9  A    between atoms: _20  and  _23
REMARK   10  A    between atoms: _23  and  _24
REMARK   11  A    between atoms: _27  and  _29
REMARK   12  A    between atoms: _29  and  _30
REMARK   13  A    between atoms: _29  and  _32
REMARK   14  A    between atoms: _32  and  _33
REMARK   15  A    between atoms: _36  and  _38
REMARK   16  A    between atoms: _38  and  _39
REMARK   17  A    between atoms: _38  and  _41
REMARK   18  A    between atoms: _41  and  _42
REMARK   19  A    between atoms: _45  and  _47
REMARK   20  A    between atoms: _47  and  _48
REMARK   21  A    between atoms: _47  and  _50
REMARK   22  A    between atoms: _50  and  _51
REMARK   23  A    between atoms: _54  and  _56
REMARK   24  A    between atoms: _56  and  _57
REMARK   25  A    between atoms: _59  and  _61
REMARK   26  A    between atoms: _61  and  _62
REMARK   27  A    between atoms: _65  and  _67
REMARK   28  A    between atoms: _67  and  _68
REMARK   29  A    between atoms: _67  and  _70
REMARK   30  A    between atoms: _70  and  _71
REMARK   31  A    between atoms: _74  and  _76
REMARK   32  A    between atoms: _76  and  _77
REMARK   33  A    between atoms: _76  and  _79
REMARK   34  A    between atoms: _79  and  _80
REMARK   35  A    between atoms: _83  and  _85
REMARK   36  A    between atoms: _85  and  _86
REMARK   37  A    between atoms: _85  and  _88
REMARK   38  A    between atoms: _88  and  _89
REMARK   39  A    between atoms: _92  and  _94
REMARK   40  A    between atoms: _94  and  _95
REMARK   41  A    between atoms: _94  and  _97
REMARK   42  A    between atoms: _100  and  _102
REMARK   43  A    between atoms: _102  and  _103
REMARK   44  A    between atoms: _102  and  _105
REMARK   45  A    between atoms: _105  and  _106
REMARK   46  A    between atoms: _106  and  _107
REMARK   47  A    between atoms: _107  and  _108
REMARK   48  A    between atoms: _108  and  _109
REMARK   49  A    between atoms: _113  and  _115
REMARK   50  A    between atoms: _115  and  _116
REMARK   51  A    between atoms: _115  and  _118
REMARK   52  A    between atoms: _118  and  _119
REMARK   53  A    between atoms: _119  and  _120
REMARK   54  A    between atoms: _122  and  _124
REMARK   55  A    between atoms: _124  and  _125
REMARK   56  A    between atoms: _124  and  _127
REMARK   57  A    between atoms: _127  and  _128
REMARK   58  A    between atoms: _131  and  _133
REMARK   59  A    between atoms: _133  and  _134
REMARK   60  A    between atoms: _136  and  _138
REMARK   61  A    between atoms: _138  and  _139
REMARK   62  A    between atoms: _141  and  _143
REMARK   63  A    between atoms: _143  and  _144
REMARK   64  A    between atoms: _143  and  _146
REMARK   65  A    between atoms: _146  and  _147
REMARK   66  A    between atoms: _150  and  _152
REMARK   67  A    between atoms: _152  and  _153
REMARK   68  A    between atoms: _155  and  _157
REMARK   69  A    between atoms: _157  and  _158
REMARK   70  A    between atoms: _160  and  _162
REMARK   71  A    between atoms: _162  and  _163
REMARK   72  A    between atoms: _162  and  _165
REMARK   73  A    between atoms: _165  and  _166
REMARK   74  A    between atoms: _169  and  _171
REMARK   75  A    between atoms: _171  and  _172
REMARK   76  A    between atoms: _171  and  _174
REMARK   77  A    between atoms: _177  and  _179
REMARK   78  A    between atoms: _179  and  _180
REMARK   79  A    between atoms: _179  and  _182
REMARK   80  A    between atoms: _182  and  _183
REMARK   81  A    between atoms: _187  and  _188
REMARK   82  A    between atoms: _193  and  _195
REMARK   83  A    between atoms: _195  and  _196
REMARK   84  A    between atoms: _195  and  _198
REMARK   85  A    between atoms: _198  and  _199
REMARK   86  A    between atoms: _203  and  _204
REMARK   87  A    between atoms: _209  and  _211
REMARK   88  A    between atoms: _211  and  _212
REMARK   89  A    between atoms: _211  and  _214
REMARK   90  A    between atoms: _217  and  _219
REMARK   91  A    between atoms: _219  and  _220
REMARK   92  A    between atoms: _219  and  _222
REMARK   93  A    between atoms: _222  and  _223
REMARK   94  A    between atoms: _228  and  _230
REMARK   95  A    between atoms: _230  and  _231
REMARK   96  A    between atoms: _230  and  _233
REMARK   97  A    between atoms: _233  and  _234
REMARK   98  A    between atoms: _237  and  _239
REMARK   99  A    between atoms: _239  and  _240
REMARK  100  A    between atoms: _239  and  _242
REMARK  101  A    between atoms: _242  and  _243
REMARK  102  A    between atoms: _246  and  _248
REMARK  103  A    between atoms: _248  and  _249
REMARK  104  A    between atoms: _251  and  _253
REMARK  105  A    between atoms: _253  and  _254
REMARK  106  A    between atoms: _253  and  _256
REMARK  107  A    between atoms: _256  and  _257
REMARK  108  A    between atoms: _257  and  _258
REMARK  109  A    between atoms: _258  and  _259
REMARK  110  A    between atoms: _268  and  _270
REMARK  111  A    between atoms: _270  and  _271
REMARK  112  A    between atoms: _270  and  _273
REMARK  113  A    between atoms: _273  and  _274
REMARK  114  A    between atoms: _279  and  _281
REMARK  115  A    between atoms: _281  and  _282
REMARK  116  A    between atoms: _281  and  _284
REMARK  117  A    between atoms: _284  and  _285
REMARK  118  A    between atoms: _285  and  _286
REMARK  119  A    between atoms: _286  and  _287
REMARK  120  A    between atoms: _296  and  _298
REMARK  121  A    between atoms: _298  and  _299
REMARK  122  A    between atoms: _298  and  _301
REMARK  123  A    between atoms: _301  and  _302
REMARK  124  A    between atoms: _305  and  _307
REMARK  125  A    between atoms: _307  and  _308
REMARK  126  A    between atoms: _307  and  _310
REMARK  127  A    between atoms: _310  and  _311
REMARK  128  A    between atoms: _314  and  _316
REMARK  129  A    between atoms: _316  and  _317
REMARK  130  A    between atoms: _316  and  _319
REMARK  131  A    between atoms: _319  and  _320
REMARK  132  A    between atoms: _323  and  _325
REMARK  133  A    between atoms: _325  and  _326
REMARK  134  A    between atoms: _325  and  _328
REMARK  135  A    between atoms: _328  and  _329
REMARK  136  A    between atoms: _332  and  _334
REMARK  137  A    between atoms: _334  and  _335
REMARK  138  A    between atoms: _337  and  _339
REMARK  139  A    between atoms: _339  and  _340
REMARK  140  A    between atoms: _343  and  _345
REMARK  141  A    between atoms: _345  and  _346
REMARK  142  A    between atoms: _345  and  _348
REMARK  143  A    between atoms: _348  and  _349
REMARK  144  A    between atoms: _352  and  _354
REMARK  145  A    between atoms: _354  and  _355
REMARK  146  A    between atoms: _354  and  _357
REMARK  147  A    between atoms: _357  and  _358
REMARK  148  A    between atoms: _361  and  _363
REMARK  149  A    between atoms: _363  and  _364
REMARK  150  A    between atoms: _363  and  _366
REMARK  151  A    between atoms: _366  and  _367
REMARK  152  A    between atoms: _370  and  _372
REMARK  153  A    between atoms: _372  and  _373
REMARK  154  A    between atoms: _372  and  _375
REMARK  155  A    between atoms: _378  and  _380
REMARK  156  A    between atoms: _380  and  _381
REMARK  157  A    between atoms: _380  and  _383
REMARK  158  A    between atoms: _383  and  _384
REMARK  159  A    between atoms: _387  and  _389
REMARK  160  A    between atoms: _389  and  _390
REMARK  161  A    between atoms: _392  and  _394
REMARK  162  A    between atoms: _394  and  _395
REMARK  163  A    between atoms: _397  and  _399
REMARK  164  A    between atoms: _399  and  _400
REMARK  165  A    between atoms: _399  and  _402
REMARK  166  A    between atoms: _402  and  _403
REMARK  167  A    between atoms: _406  and  _408
REMARK  168  A    between atoms: _408  and  _409
REMARK  169  A    between atoms: _411  and  _413
REMARK  170  A    between atoms: _413  and  _414
REMARK  171  A    between atoms: _416  and  _418
REMARK  172  A    between atoms: _418  and  _419
REMARK  173  A    between atoms: _418  and  _421
REMARK  174  A    between atoms: _421  and  _422
REMARK  175  A    between atoms: _425  and  _427
REMARK  176  A    between atoms: _427  and  _428
REMARK  177  A    between atoms: _427  and  _430
REMARK  178  A    between atoms: _430  and  _431
REMARK  179  A    between atoms: _434  and  _436
REMARK  180  A    between atoms: _436  and  _437
REMARK  181  A    between atoms: _436  and  _439
REMARK  182  A    between atoms: _439  and  _440
REMARK  183  A    between atoms: _444  and  _445
REMARK  184  A    between atoms: _450  and  _452
REMARK  185  A    between atoms: _452  and  _453
REMARK  186  A    between atoms: _452  and  _455
REMARK  187  A    between atoms: _458  and  _460
REMARK  188  A    between atoms: _460  and  _461
REMARK  189  A    between atoms: _460  and  _463
REMARK  190  A    between atoms: _463  and  _464
REMARK  191  A    between atoms: _469  and  _471
REMARK  192  A    between atoms: _471  and  _472
REMARK  193  A    between atoms: _471  and  _474
REMARK  194  A    between atoms: _474  and  _475
REMARK  195  A    between atoms: _478  and  _480
REMARK  196  A    between atoms: _480  and  _481
REMARK  197  A    between atoms: _480  and  _483
REMARK  198  A    between atoms: _483  and  _484
REMARK  199  A    between atoms: _487  and  _489
REMARK  200  A    between atoms: _489  and  _490
REMARK  201  A    between atoms: _492  and  _494
REMARK  202  A    between atoms: _494  and  _495
REMARK  203  A    between atoms: _494  and  _497
REMARK  204  A    between atoms: _497  and  _498
REMARK  205  A    between atoms: _498  and  _499
REMARK  206  A    between atoms: _499  and  _500
REMARK  207  A    between atoms: _509  and  _511
REMARK  208  A    between atoms: _511  and  _512
REMARK  209  A    between atoms: _511  and  _514
REMARK  210  A    between atoms: _514  and  _515
REMARK                            x       y       z     vdW  Elec       q    Type
REMARK                         _______ _______ _______ _____ _____    ______ ____
ROOT
ATOM      1  O   HOH     1     -21.071  10.433  -3.485  0.00  0.00    +0.000 OA
ENDROOT
TORSDOF 0
REMARK  Name = ../refined-set-2016/4i8z/4i8z_pocket.pdb
REMARK  210 active torsions:
REMARK  status: ('A' for Active; 'I' for Inactive)
REMARK    1  A    between atoms: _1  and  _3
REMARK    2  A    between atoms: _3  and  _4
REMARK    3  A    between atoms: _3  and  _6
REMARK    4  A    between atoms: _6  and  _7
REMARK    5  A    between atoms: _7  and  _8
REMARK    6  A    between atoms: _8  and  _9
REMARK    7  A    between atoms: _18  and  _20
REMARK    8  A    between atoms: _20  and  _21
REMARK    9  A    between atoms: _20  and  _23
REMARK   10  A    between atoms: _23  and  _24
REMARK   11  A    between atoms: _27  and  _29
REMARK   12  A    between atoms: _29  and  _30
REMARK   13  A    between atoms: _29  and  _32
REMARK   14  A    between atoms: _32  and  _33
REMARK   15  A    between atoms: _36  and  _38
REMARK   16  A    between atoms: _38  and  _39
REMARK   17  A    between atoms: _38  and  _41
REMARK   18  A    between atoms: _41  and  _42
REMARK   19  A    between atoms: _45  and  _47
REMARK   20  A    between atoms: _47  and  _48
REMARK   21  A    between atoms: _47  and  _50
REMARK   22  A    between atoms: _50  and  _51
REMARK   23  A    between atoms: _54  and  _56
REMARK   24  A    between atoms: _56  and  _57
REMARK   25  A    between atoms: _59  and  _61
REMARK   26  A    between atoms: _61  and  _62
REMARK   27  A    between atoms: _65  and  _67
REMARK   28  A    between atoms: _67  and  _68
REMARK   29  A    between atoms: _67  and  _70
REMARK   30  A    between atoms: _70  and  _71
REMARK   31  A    between atoms: _74  and  _76
REMARK   32  A    between atoms: _76  and  _77
REMARK   33  A    between atoms: _76  and  _79
REMARK   34  A    between atoms: _79  and  _80
REMARK   35  A    between atoms: _83  and  _85
REMARK   36  A    between atoms: _85  and  _86
REMARK   37  A    between atoms: _85  and  _88
REMARK   38  A    between atoms: _88  and  _89
REMARK   39  A    between atoms: _92  and  _94
REMARK   40  A    between atoms: _94  and  _95
REMARK   41  A    between atoms: _94  and  _97
REMARK   42  A    between atoms: _100  and  _102
REMARK   43  A    between atoms: _102  and  _103
REMARK   44  A    between atoms: _102  and  _105
REMARK   45  A    between atoms: _105  and  _106
REMARK   46  A    between atoms: _106  and  _107
REMARK   47  A    between atoms: _107  and  _108
REMARK   48  A    between atoms: _108  and  _109
REMARK   49  A    between atoms: _113  and  _115
REMARK   50  A    between atoms: _115  and  _116
REMARK   51  A    between atoms: _115  and  _118
REMARK   52  A    between atoms: _118  and  _119
REMARK   53  A    between atoms: _119  and  _120
REMARK   54  A    between atoms: _122  and  _124
REMARK   55  A    between atoms: _124  and  _125
REMARK   56  A    between atoms: _124  and  _127
REMARK   57  A    between atoms: _127  and  _128
REMARK   58  A    between atoms: _131  and  _133
REMARK   59  A    between atoms: _133  and  _134
REMARK   60  A    between atoms: _136  and  _138
REMARK   61  A    between atoms: _138  and  _139
REMARK   62  A    between atoms: _141  and  _143
REMARK   63  A    between atoms: _143  and  _144
REMARK   64  A    between atoms: _143  and  _146
REMARK   65  A    between atoms: _146  and  _147
REMARK   66  A    between atoms: _150  and  _152
REMARK   67  A    between atoms: _152  and  _153
REMARK   68  A    between atoms: _155  and  _157
REMARK   69  A    between atoms: _157  and  _158
REMARK   70  A    between atoms: _160  and  _162
REMARK   71  A    between atoms: _162  and  _163
REMARK   72  A    between atoms: _162  and  _165
REMARK   73  A    between atoms: _165  and  _166
REMARK   74  A    between atoms: _169  and  _171
REMARK   75  A    between atoms: _171  and  _172
REMARK   76  A    between atoms: _171  and  _174
REMARK   77  A    between atoms: _177  and  _179
REMARK   78  A    between atoms: _179  and  _180
REMARK   79  A    between atoms: _179  and  _182
REMARK   80  A    between atoms: _182  and  _183
REMARK   81  A    between atoms: _187  and  _188
REMARK   82  A    between atoms: _193  and  _195
REMARK   83  A    between atoms: _195  and  _196
REMARK   84  A    between atoms: _195  and  _198
REMARK   85  A    between atoms: _198  and  _199
REMARK   86  A    between atoms: _203  and  _204
REMARK   87  A    between atoms: _209  and  _211
REMARK   88  A    between atoms: _211  and  _212
REMARK   89  A    between atoms: _211  and  _214
REMARK   90  A    between atoms: _217  and  _219
REMARK   91  A    between atoms: _219  and  _220
REMARK   92  A    between atoms: _219  and  _222
REMARK   93  A    between atoms: _222  and  _223
REMARK   94  A    between atoms: _228  and  _230
REMARK   95  A    between atoms: _230  and  _231
REMARK   96  A    between atoms: _230  and  _233
REMARK   97  A    between atoms: _233  and  _234
REMARK   98  A    between atoms: _237  and  _239
REMARK   99  A    between atoms: _239  and  _240
REMARK  100  A    between atoms: _239  and  _242
REMARK  101  A    between atoms: _242  and  _243
REMARK  102  A    between atoms: _246  and  _248
REMARK  103  A    between atoms: _248  and  _249
REMARK  104  A    between atoms: _251  and  _253
REMARK  105  A    between atoms: _253  and  _254
REMARK  106  A    between atoms: _253  and  _256
REMARK  107  A    between atoms: _256  and  _257
REMARK  108  A    between atoms: _257  and  _258
REMARK  109  A    between atoms: _258  and  _259
REMARK  110  A    between atoms: _268  and  _270
REMARK  111  A    between atoms: _270  and  _271
REMARK  112  A    between atoms: _270  and  _273
REMARK  113  A    between atoms: _273  and  _274
REMARK  114  A    between atoms: _279  and  _281
REMARK  115  A    between atoms: _281  and  _282
REMARK  116  A    between atoms: _281  and  _284
REMARK  117  A    between atoms: _284  and  _285
REMARK  118  A    between atoms: _285  and  _286
REMARK  119  A    between atoms: _286  and  _287
REMARK  120  A    between atoms: _296  and  _298
REMARK  121  A    between atoms: _298  and  _299
REMARK  122  A    between atoms: _298  and  _301
REMARK  123  A    between atoms: _301  and  _302
REMARK  124  A    between atoms: _305  and  _307
REMARK  125  A    between atoms: _307  and  _308
REMARK  126  A    between atoms: _307  and  _310
REMARK  127  A    between atoms: _310  and  _311
REMARK  128  A    between atoms: _314  and  _316
REMARK  129  A    between atoms: _316  and  _317
REMARK  130  A    between atoms: _316  and  _319
REMARK  131  A    between atoms: _319  and  _320
REMARK  132  A    between atoms: _323  and  _325
REMARK  133  A    between atoms: _325  and  _326
REMARK  134  A    between atoms: _325  and  _328
REMARK  135  A    between atoms: _328  and  _329
REMARK  136  A    between atoms: _332  and  _334
REMARK  137  A    between atoms: _334  and  _335
REMARK  138  A    between atoms: _337  and  _339
REMARK  139  A    between atoms: _339  and  _340
REMARK  140  A    between atoms: _343  and  _345
REMARK  141  A    between atoms: _345  and  _346
REMARK  142  A    between atoms: _345  and  _348
REMARK  143  A    between atoms: _348  and  _349
REMARK  144  A    between atoms: _352  and  _354
REMARK  145  A    between atoms: _354  and  _355
REMARK  146  A    between atoms: _354  and  _357
REMARK  147  A    between atoms: _357  and  _358
REMARK  148  A    between atoms: _361  and  _363
REMARK  149  A    between atoms: _363  and  _364
REMARK  150  A    between atoms: _363  and  _366
REMARK  151  A    between atoms: _366  and  _367
REMARK  152  A    between atoms: _370  and  _372
REMARK  153  A    between atoms: _372  and  _373
REMARK  154  A    between atoms: _372  and  _375
REMARK  155  A    between atoms: _378  and  _380
REMARK  156  A    between atoms: _380  and  _381
REMARK  157  A    between atoms: _380  and  _383
REMARK  158  A    between atoms: _383  and  _384
REMARK  159  A    between atoms: _387  and  _389
REMARK  160  A    between atoms: _389  and  _390
REMARK  161  A    between atoms: _392  and  _394
REMARK  162  A    between atoms: _394  and  _395
REMARK  163  A    between atoms: _397  and  _399
REMARK  164  A    between atoms: _399  and  _400
REMARK  165  A    between atoms: _399  and  _402
REMARK  166  A    between atoms: _402  and  _403
REMARK  167  A    between atoms: _406  and  _408
REMARK  168  A    between atoms: _408  and  _409
REMARK  169  A    between atoms: _411  and  _413
REMARK  170  A    between atoms: _413  and  _414
REMARK  171  A    between atoms: _416  and  _418
REMARK  172  A    between atoms: _418  and  _419
REMARK  173  A    between atoms: _418  and  _421
REMARK  174  A    between atoms: _421  and  _422
REMARK  175  A    between atoms: _425  and  _427
REMARK  176  A    between atoms: _427  and  _428
REMARK  177  A    between atoms: _427  and  _430
REMARK  178  A    between atoms: _430  and  _431
REMARK  179  A    between atoms: _434  and  _436
REMARK  180  A    between atoms: _436  and  _437
REMARK  181  A    between atoms: _436  and  _439
REMARK  182  A    between atoms: _439  and  _440
REMARK  183  A    between atoms: _444  and  _445
REMARK  184  A    between atoms: _450  and  _452
REMARK  185  A    between atoms: _452  and  _453
REMARK  186  A    between atoms: _452  and  _455
REMARK  187  A    between atoms: _458  and  _460
REMARK  188  A    between atoms: _460  and  _461
REMARK  189  A    between atoms: _460  and  _463
REMARK  190  A    between atoms: _463  and  _464
REMARK  191  A    between atoms: _469  and  _471
REMARK  192  A    between atoms: _471  and  _472
REMARK  193  A    between atoms: _471  and  _474
REMARK  194  A    between atoms: _474  and  _475
REMARK  195  A    between atoms: _478  and  _480
REMARK  196  A    between atoms: _480  and  _481
REMARK  197  A    between atoms: _480  and  _483
REMARK  198  A    between atoms: _483  and  _484
REMARK  199  A    between atoms: _487  and  _489
REMARK  200  A    between atoms: _489  and  _490
REMARK  201  A    between atoms: _492  and  _494
REMARK  202  A    between atoms: _494  and  _495
REMARK  203  A    between atoms: _494  and  _497
REMARK  204  A    between atoms: _497  and  _498
REMARK  205  A    between atoms: _498  and  _499
REMARK  206  A    between atoms: _499  and  _500
REMARK  207  A    between atoms: _509  and  _511
REMARK  208  A    between atoms: _511  and  _512
REMARK  209  A    between atoms: _511  and  _514
REMARK  210  A    between atoms: _514  and  _515
REMARK                            x       y       z     vdW  Elec       q    Type
REMARK                         _______ _______ _______ _____ _____    ______ ____
ROOT
ATOM      1  O   HOH     1     -15.426  -0.005  -0.244  0.00  0.00    +0.000 OA
ENDROOT
TORSDOF 0
REMARK  Name = ../refined-set-2016/4i8z/4i8z_pocket.pdb
REMARK  210 active torsions:
REMARK  status: ('A' for Active; 'I' for Inactive)
REMARK    1  A    between atoms: _1  and  _3
REMARK    2  A    between atoms: _3  and  _4
REMARK    3  A    between atoms: _3  and  _6
REMARK    4  A    between atoms: _6  and  _7
REMARK    5  A    between atoms: _7  and  _8
REMARK    6  A    between atoms: _8  and  _9
REMARK    7  A    between atoms: _18  and  _20
REMARK    8  A    between atoms: _20  and  _21
REMARK    9  A    between atoms: _20  and  _23
REMARK   10  A    between atoms: _23  and  _24
REMARK   11  A    between atoms: _27  and  _29
REMARK   12  A    between atoms: _29  and  _30
REMARK   13  A    between atoms: _29  and  _32
REMARK   14  A    between atoms: _32  and  _33
REMARK   15  A    between atoms: _36  and  _38
REMARK   16  A    between atoms: _38  and  _39
REMARK   17  A    between atoms: _38  and  _41
REMARK   18  A    between atoms: _41  and  _42
REMARK   19  A    between atoms: _45  and  _47
REMARK   20  A    between atoms: _47  and  _48
REMARK   21  A    between atoms: _47  and  _50
REMARK   22  A    between atoms: _50  and  _51
REMARK   23  A    between atoms: _54  and  _56
REMARK   24  A    between atoms: _56  and  _57
REMARK   25  A    between atoms: _59  and  _61
REMARK   26  A    between atoms: _61  and  _62
REMARK   27  A    between atoms: _65  and  _67
REMARK   28  A    between atoms: _67  and  _68
REMARK   29  A    between atoms: _67  and  _70
REMARK   30  A    between atoms: _70  and  _71
REMARK   31  A    between atoms: _74  and  _76
REMARK   32  A    between atoms: _76  and  _77
REMARK   33  A    between atoms: _76  and  _79
REMARK   34  A    between atoms: _79  and  _80
REMARK   35  A    between atoms: _83  and  _85
REMARK   36  A    between atoms: _85  and  _86
REMARK   37  A    between atoms: _85  and  _88
REMARK   38  A    between atoms: _88  and  _89
REMARK   39  A    between atoms: _92  and  _94
REMARK   40  A    between atoms: _94  and  _95
REMARK   41  A    between atoms: _94  and  _97
REMARK   42  A    between atoms: _100  and  _102
REMARK   43  A    between atoms: _102  and  _103
REMARK   44  A    between atoms: _102  and  _105
REMARK   45  A    between atoms: _105  and  _106
REMARK   46  A    between atoms: _106  and  _107
REMARK   47  A    between atoms: _107  and  _108
REMARK   48  A    between atoms: _108  and  _109
REMARK   49  A    between atoms: _113  and  _115
REMARK   50  A    between atoms: _115  and  _116
REMARK   51  A    between atoms: _115  and  _118
REMARK   52  A    between atoms: _118  and  _119
REMARK   53  A    between atoms: _119  and  _120
REMARK   54  A    between atoms: _122  and  _124
REMARK   55  A    between atoms: _124  and  _125
REMARK   56  A    between atoms: _124  and  _127
REMARK   57  A    between atoms: _127  and  _128
REMARK   58  A    between atoms: _131  and  _133
REMARK   59  A    between atoms: _133  and  _134
REMARK   60  A    between atoms: _136  and  _138
REMARK   61  A    between atoms: _138  and  _139
REMARK   62  A    between atoms: _141  and  _143
REMARK   63  A    between atoms: _143  and  _144
REMARK   64  A    between atoms: _143  and  _146
REMARK   65  A    between atoms: _146  and  _147
REMARK   66  A    between atoms: _150  and  _152
REMARK   67  A    between atoms: _152  and  _153
REMARK   68  A    between atoms: _155  and  _157
REMARK   69  A    between atoms: _157  and  _158
REMARK   70  A    between atoms: _160  and  _162
REMARK   71  A    between atoms: _162  and  _163
REMARK   72  A    between atoms: _162  and  _165
REMARK   73  A    between atoms: _165  and  _166
REMARK   74  A    between atoms: _169  and  _171
REMARK   75  A    between atoms: _171  and  _172
REMARK   76  A    between atoms: _171  and  _174
REMARK   77  A    between atoms: _177  and  _179
REMARK   78  A    between atoms: _179  and  _180
REMARK   79  A    between atoms: _179  and  _182
REMARK   80  A    between atoms: _182  and  _183
REMARK   81  A    between atoms: _187  and  _188
REMARK   82  A    between atoms: _193  and  _195
REMARK   83  A    between atoms: _195  and  _196
REMARK   84  A    between atoms: _195  and  _198
REMARK   85  A    between atoms: _198  and  _199
REMARK   86  A    between atoms: _203  and  _204
REMARK   87  A    between atoms: _209  and  _211
REMARK   88  A    between atoms: _211  and  _212
REMARK   89  A    between atoms: _211  and  _214
REMARK   90  A    between atoms: _217  and  _219
REMARK   91  A    between atoms: _219  and  _220
REMARK   92  A    between atoms: _219  and  _222
REMARK   93  A    between atoms: _222  and  _223
REMARK   94  A    between atoms: _228  and  _230
REMARK   95  A    between atoms: _230  and  _231
REMARK   96  A    between atoms: _230  and  _233
REMARK   97  A    between atoms: _233  and  _234
REMARK   98  A    between atoms: _237  and  _239
REMARK   99  A    between atoms: _239  and  _240
REMARK  100  A    between atoms: _239  and  _242
REMARK  101  A    between atoms: _242  and  _243
REMARK  102  A    between atoms: _246  and  _248
REMARK  103  A    between atoms: _248  and  _249
REMARK  104  A    between atoms: _251  and  _253
REMARK  105  A    between atoms: _253  and  _254
REMARK  106  A    between atoms: _253  and  _256
REMARK  107  A    between atoms: _256  and  _257
REMARK  108  A    between atoms: _257  and  _258
REMARK  109  A    between atoms: _258  and  _259
REMARK  110  A    between atoms: _268  and  _270
REMARK  111  A    between atoms: _270  and  _271
REMARK  112  A    between atoms: _270  and  _273
REMARK  113  A    between atoms: _273  and  _274
REMARK  114  A    between atoms: _279  and  _281
REMARK  115  A    between atoms: _281  and  _282
REMARK  116  A    between atoms: _281  and  _284
REMARK  117  A    between atoms: _284  and  _285
REMARK  118  A    between atoms: _285  and  _286
REMARK  119  A    between atoms: _286  and  _287
REMARK  120  A    between atoms: _296  and  _298
REMARK  121  A    between atoms: _298  and  _299
REMARK  122  A    between atoms: _298  and  _301
REMARK  123  A    between atoms: _301  and  _302
REMARK  124  A    between atoms: _305  and  _307
REMARK  125  A    between atoms: _307  and  _308
REMARK  126  A    between atoms: _307  and  _310
REMARK  127  A    between atoms: _310  and  _311
REMARK  128  A    between atoms: _314  and  _316
REMARK  129  A    between atoms: _316  and  _317
REMARK  130  A    between atoms: _316  and  _319
REMARK  131  A    between atoms: _319  and  _320
REMARK  132  A    between atoms: _323  and  _325
REMARK  133  A    between atoms: _325  and  _326
REMARK  134  A    between atoms: _325  and  _328
REMARK  135  A    between atoms: _328  and  _329
REMARK  136  A    between atoms: _332  and  _334
REMARK  137  A    between atoms: _334  and  _335
REMARK  138  A    between atoms: _337  and  _339
REMARK  139  A    between atoms: _339  and  _340
REMARK  140  A    between atoms: _343  and  _345
REMARK  141  A    between atoms: _345  and  _346
REMARK  142  A    between atoms: _345  and  _348
REMARK  143  A    between atoms: _348  and  _349
REMARK  144  A    between atoms: _352  and  _354
REMARK  145  A    between atoms: _354  and  _355
REMARK  146  A    between atoms: _354  and  _357
REMARK  147  A    between atoms: _357  and  _358
REMARK  148  A    between atoms: _361  and  _363
REMARK  149  A    between atoms: _363  and  _364
REMARK  150  A    between atoms: _363  and  _366
REMARK  151  A    between atoms: _366  and  _367
REMARK  152  A    between atoms: _370  and  _372
REMARK  153  A    between atoms: _372  and  _373
REMARK  154  A    between atoms: _372  and  _375
REMARK  155  A    between atoms: _378  and  _380
REMARK  156  A    between atoms: _380  and  _381
REMARK  157  A    between atoms: _380  and  _383
REMARK  158  A    between atoms: _383  and  _384
REMARK  159  A    between atoms: _387  and  _389
REMARK  160  A    between atoms: _389  and  _390
REMARK  161  A    between atoms: _392  and  _394
REMARK  162  A    between atoms: _394  and  _395
REMARK  163  A    between atoms: _397  and  _399
REMARK  164  A    between atoms: _399  and  _400
REMARK  165  A    between atoms: _399  and  _402
REMARK  166  A    between atoms: _402  and  _403
REMARK  167  A    between atoms: _406  and  _408
REMARK  168  A    between atoms: _408  and  _409
REMARK  169  A    between atoms: _411  and  _413
REMARK  170  A    between atoms: _413  and  _414
REMARK  171  A    between atoms: _416  and  _418
REMARK  172  A    between atoms: _418  and  _419
REMARK  173  A    between atoms: _418  and  _421
REMARK  174  A    between atoms: _421  and  _422
REMARK  175  A    between atoms: _425  and  _427
REMARK  176  A    between atoms: _427  and  _428
REMARK  177  A    between atoms: _427  and  _430
REMARK  178  A    between atoms: _430  and  _431
REMARK  179  A    between atoms: _434  and  _436
REMARK  180  A    between atoms: _436  and  _437
REMARK  181  A    between atoms: _436  and  _439
REMARK  182  A    between atoms: _439  and  _440
REMARK  183  A    between atoms: _444  and  _445
REMARK  184  A    between atoms: _450  and  _452
REMARK  185  A    between atoms: _452  and  _453
REMARK  186  A    between atoms: _452  and  _455
REMARK  187  A    between atoms: _458  and  _460
REMARK  188  A    between atoms: _460  and  _461
REMARK  189  A    between atoms: _460  and  _463
REMARK  190  A    between atoms: _463  and  _464
REMARK  191  A    between atoms: _469  and  _471
REMARK  192  A    between atoms: _471  and  _472
REMARK  193  A    between atoms: _471  and  _474
REMARK  194  A    between atoms: _474  and  _475
REMARK  195  A    between atoms: _478  and  _480
REMARK  196  A    between atoms: _480  and  _481
REMARK  197  A    between atoms: _480  and  _483
REMARK  198  A    between atoms: _483  and  _484
REMARK  199  A    between atoms: _487  and  _489
REMARK  200  A    between atoms: _489  and  _490
REMARK  201  A    between atoms: _492  and  _494
REMARK  202  A    between atoms: _494  and  _495
REMARK  203  A    between atoms: _494  and  _497
REMARK  204  A    between atoms: _497  and  _498
REMARK  205  A    between atoms: _498  and  _499
REMARK  206  A    between atoms: _499  and  _500
REMARK  207  A    between atoms: _509  and  _511
REMARK  208  A    between atoms: _511  and  _512
REMARK  209  A    between atoms: _511  and  _514
REMARK  210  A    between atoms: _514  and  _515
REMARK                            x       y       z     vdW  Elec       q    Type
REMARK                         _______ _______ _______ _____ _____    ______ ____
ROOT
ATOM      1  O   HOH     1     -25.709  -4.243  11.647  0.00  0.00    +0.000 OA
ENDROOT
TORSDOF 0
REMARK  Name = ../refined-set-2016/4i8z/4i8z_pocket.pdb
REMARK  210 active torsions:
REMARK  status: ('A' for Active; 'I' for Inactive)
REMARK    1  A    between atoms: _1  and  _3
REMARK    2  A    between atoms: _3  and  _4
REMARK    3  A    between atoms: _3  and  _6
REMARK    4  A    between atoms: _6  and  _7
REMARK    5  A    between atoms: _7  and  _8
REMARK    6  A    between atoms: _8  and  _9
REMARK    7  A    between atoms: _18  and  _20
REMARK    8  A    between atoms: _20  and  _21
REMARK    9  A    between atoms: _20  and  _23
REMARK   10  A    between atoms: _23  and  _24
REMARK   11  A    between atoms: _27  and  _29
REMARK   12  A    between atoms: _29  and  _30
REMARK   13  A    between atoms: _29  and  _32
REMARK   14  A    between atoms: _32  and  _33
REMARK   15  A    between atoms: _36  and  _38
REMARK   16  A    between atoms: _38  and  _39
REMARK   17  A    between atoms: _38  and  _41
REMARK   18  A    between atoms: _41  and  _42
REMARK   19  A    between atoms: _45  and  _47
REMARK   20  A    between atoms: _47  and  _48
REMARK   21  A    between atoms: _47  and  _50
REMARK   22  A    between atoms: _50  and  _51
REMARK   23  A    between atoms: _54  and  _56
REMARK   24  A    between atoms: _56  and  _57
REMARK   25  A    between atoms: _59  and  _61
REMARK   26  A    between atoms: _61  and  _62
REMARK   27  A    between atoms: _65  and  _67
REMARK   28  A    between atoms: _67  and  _68
REMARK   29  A    between atoms: _67  and  _70
REMARK   30  A    between atoms: _70  and  _71
REMARK   31  A    between atoms: _74  and  _76
REMARK   32  A    between atoms: _76  and  _77
REMARK   33  A    between atoms: _76  and  _79
REMARK   34  A    between atoms: _79  and  _80
REMARK   35  A    between atoms: _83  and  _85
REMARK   36  A    between atoms: _85  and  _86
REMARK   37  A    between atoms: _85  and  _88
REMARK   38  A    between atoms: _88  and  _89
REMARK   39  A    between atoms: _92  and  _94
REMARK   40  A    between atoms: _94  and  _95
REMARK   41  A    between atoms: _94  and  _97
REMARK   42  A    between atoms: _100  and  _102
REMARK   43  A    between atoms: _102  and  _103
REMARK   44  A    between atoms: _102  and  _105
REMARK   45  A    between atoms: _105  and  _106
REMARK   46  A    between atoms: _106  and  _107
REMARK   47  A    between atoms: _107  and  _108
REMARK   48  A    between atoms: _108  and  _109
REMARK   49  A    between atoms: _113  and  _115
REMARK   50  A    between atoms: _115  and  _116
REMARK   51  A    between atoms: _115  and  _118
REMARK   52  A    between atoms: _118  and  _119
REMARK   53  A    between atoms: _119  and  _120
REMARK   54  A    between atoms: _122  and  _124
REMARK   55  A    between atoms: _124  and  _125
REMARK   56  A    between atoms: _124  and  _127
REMARK   57  A    between atoms: _127  and  _128
REMARK   58  A    between atoms: _131  and  _133
REMARK   59  A    between atoms: _133  and  _134
REMARK   60  A    between atoms: _136  and  _138
REMARK   61  A    between atoms: _138  and  _139
REMARK   62  A    between atoms: _141  and  _143
REMARK   63  A    between atoms: _143  and  _144
REMARK   64  A    between atoms: _143  and  _146
REMARK   65  A    between atoms: _146  and  _147
REMARK   66  A    between atoms: _150  and  _152
REMARK   67  A    between atoms: _152  and  _153
REMARK   68  A    between atoms: _155  and  _157
REMARK   69  A    between atoms: _157  and  _158
REMARK   70  A    between atoms: _160  and  _162
REMARK   71  A    between atoms: _162  and  _163
REMARK   72  A    between atoms: _162  and  _165
REMARK   73  A    between atoms: _165  and  _166
REMARK   74  A    between atoms: _169  and  _171
REMARK   75  A    between atoms: _171  and  _172
REMARK   76  A    between atoms: _171  and  _174
REMARK   77  A    between atoms: _177  and  _179
REMARK   78  A    between atoms: _179  and  _180
REMARK   79  A    between atoms: _179  and  _182
REMARK   80  A    between atoms: _182  and  _183
REMARK   81  A    between atoms: _187  and  _188
REMARK   82  A    between atoms: _193  and  _195
REMARK   83  A    between atoms: _195  and  _196
REMARK   84  A    between atoms: _195  and  _198
REMARK   85  A    between atoms: _198  and  _199
REMARK   86  A    between atoms: _203  and  _204
REMARK   87  A    between atoms: _209  and  _211
REMARK   88  A    between atoms: _211  and  _212
REMARK   89  A    between atoms: _211  and  _214
REMARK   90  A    between atoms: _217  and  _219
REMARK   91  A    between atoms: _219  and  _220
REMARK   92  A    between atoms: _219  and  _222
REMARK   93  A    between atoms: _222  and  _223
REMARK   94  A    between atoms: _228  and  _230
REMARK   95  A    between atoms: _230  and  _231
REMARK   96  A    between atoms: _230  and  _233
REMARK   97  A    between atoms: _233  and  _234
REMARK   98  A    between atoms: _237  and  _239
REMARK   99  A    between atoms: _239  and  _240
REMARK  100  A    between atoms: _239  and  _242
REMARK  101  A    between atoms: _242  and  _243
REMARK  102  A    between atoms: _246  and  _248
REMARK  103  A    between atoms: _248  and  _249
REMARK  104  A    between atoms: _251  and  _253
REMARK  105  A    between atoms: _253  and  _254
REMARK  106  A    between atoms: _253  and  _256
REMARK  107  A    between atoms: _256  and  _257
REMARK  108  A    between atoms: _257  and  _258
REMARK  109  A    between atoms: _258  and  _259
REMARK  110  A    between atoms: _268  and  _270
REMARK  111  A    between atoms: _270  and  _271
REMARK  112  A    between atoms: _270  and  _273
REMARK  113  A    between atoms: _273  and  _274
REMARK  114  A    between atoms: _279  and  _281
REMARK  115  A    between atoms: _281  and  _282
REMARK  116  A    between atoms: _281  and  _284
REMARK  117  A    between atoms: _284  and  _285
REMARK  118  A    between atoms: _285  and  _286
REMARK  119  A    between atoms: _286  and  _287
REMARK  120  A    between atoms: _296  and  _298
REMARK  121  A    between atoms: _298  and  _299
REMARK  122  A    between atoms: _298  and  _301
REMARK  123  A    between atoms: _301  and  _302
REMARK  124  A    between atoms: _305  and  _307
REMARK  125  A    between atoms: _307  and  _308
REMARK  126  A    between atoms: _307  and  _310
REMARK  127  A    between atoms: _310  and  _311
REMARK  128  A    between atoms: _314  and  _316
REMARK  129  A    between atoms: _316  and  _317
REMARK  130  A    between atoms: _316  and  _319
REMARK  131  A    between atoms: _319  and  _320
REMARK  132  A    between atoms: _323  and  _325
REMARK  133  A    between atoms: _325  and  _326
REMARK  134  A    between atoms: _325  and  _328
REMARK  135  A    between atoms: _328  and  _329
REMARK  136  A    between atoms: _332  and  _334
REMARK  137  A    between atoms: _334  and  _335
REMARK  138  A    between atoms: _337  and  _339
REMARK  139  A    between atoms: _339  and  _340
REMARK  140  A    between atoms: _343  and  _345
REMARK  141  A    between atoms: _345  and  _346
REMARK  142  A    between atoms: _345  and  _348
REMARK  143  A    between atoms: _348  and  _349
REMARK  144  A    between atoms: _352  and  _354
REMARK  145  A    between atoms: _354  and  _355
REMARK  146  A    between atoms: _354  and  _357
REMARK  147  A    between atoms: _357  and  _358
REMARK  148  A    between atoms: _361  and  _363
REMARK  149  A    between atoms: _363  and  _364
REMARK  150  A    between atoms: _363  and  _366
REMARK  151  A    between atoms: _366  and  _367
REMARK  152  A    between atoms: _370  and  _372
REMARK  153  A    between atoms: _372  and  _373
REMARK  154  A    between atoms: _372  and  _375
REMARK  155  A    between atoms: _378  and  _380
REMARK  156  A    between atoms: _380  and  _381
REMARK  157  A    between atoms: _380  and  _383
REMARK  158  A    between atoms: _383  and  _384
REMARK  159  A    between atoms: _387  and  _389
REMARK  160  A    between atoms: _389  and  _390
REMARK  161  A    between atoms: _392  and  _394
REMARK  162  A    between atoms: _394  and  _395
REMARK  163  A    between atoms: _397  and  _399
REMARK  164  A    between atoms: _399  and  _400
REMARK  165  A    between atoms: _399  and  _402
REMARK  166  A    between atoms: _402  and  _403
REMARK  167  A    between atoms: _406  and  _408
REMARK  168  A    between atoms: _408  and  _409
REMARK  169  A    between atoms: _411  and  _413
REMARK  170  A    between atoms: _413  and  _414
REMARK  171  A    between atoms: _416  and  _418
REMARK  172  A    between atoms: _418  and  _419
REMARK  173  A    between atoms: _418  and  _421
REMARK  174  A    between atoms: _421  and  _422
REMARK  175  A    between atoms: _425  and  _427
REMARK  176  A    between atoms: _427  and  _428
REMARK  177  A    between atoms: _427  and  _430
REMARK  178  A    between atoms: _430  and  _431
REMARK  179  A    between atoms: _434  and  _436
REMARK  180  A    between atoms: _436  and  _437
REMARK  181  A    between atoms: _436  and  _439
REMARK  182  A    between atoms: _439  and  _440
REMARK  183  A    between atoms: _444  and  _445
REMARK  184  A    between atoms: _450  and  _452
REMARK  185  A    between atoms: _452  and  _453
REMARK  186  A    between atoms: _452  and  _455
REMARK  187  A    between atoms: _458  and  _460
REMARK  188  A    between atoms: _460  and  _461
REMARK  189  A    between atoms: _460  and  _463
REMARK  190  A    between atoms: _463  and  _464
REMARK  191  A    between atoms: _469  and  _471
REMARK  192  A    between atoms: _471  and  _472
REMARK  193  A    between atoms: _471  and  _474
REMARK  194  A    between atoms: _474  and  _475
REMARK  195  A    between atoms: _478  and  _480
REMARK  196  A    between atoms: _480  and  _481
REMARK  197  A    between atoms: _480  and  _483
REMARK  198  A    between atoms: _483  and  _484
REMARK  199  A    between atoms: _487  and  _489
REMARK  200  A    between atoms: _489  and  _490
REMARK  201  A    between atoms: _492  and  _494
REMARK  202  A    between atoms: _494  and  _495
REMARK  203  A    between atoms: _494  and  _497
REMARK  204  A    between atoms: _497  and  _498
REMARK  205  A    between atoms: _498  and  _499
REMARK  206  A    between atoms: _499  and  _500
REMARK  207  A    between atoms: _509  and  _511
REMARK  208  A    between atoms: _511  and  _512
REMARK  209  A    between atoms: _511  and  _514
REMARK  210  A    between atoms: _514  and  _515
REMARK                            x       y       z     vdW  Elec       q    Type
REMARK                         _______ _______ _______ _____ _____    ______ ____
ROOT
ATOM      1  O   HOH     1     -20.468  -0.360  13.548  0.00  0.00    +0.000 OA
ENDROOT
TORSDOF 0
REMARK  Name = ../refined-set-2016/4i8z/4i8z_pocket.pdb
REMARK  210 active torsions:
REMARK  status: ('A' for Active; 'I' for Inactive)
REMARK    1  A    between atoms: _1  and  _3
REMARK    2  A    between atoms: _3  and  _4
REMARK    3  A    between atoms: _3  and  _6
REMARK    4  A    between atoms: _6  and  _7
REMARK    5  A    between atoms: _7  and  _8
REMARK    6  A    between atoms: _8  and  _9
REMARK    7  A    between atoms: _18  and  _20
REMARK    8  A    between atoms: _20  and  _21
REMARK    9  A    between atoms: _20  and  _23
REMARK   10  A    between atoms: _23  and  _24
REMARK   11  A    between atoms: _27  and  _29
REMARK   12  A    between atoms: _29  and  _30
REMARK   13  A    between atoms: _29  and  _32
REMARK   14  A    between atoms: _32  and  _33
REMARK   15  A    between atoms: _36  and  _38
REMARK   16  A    between atoms: _38  and  _39
REMARK   17  A    between atoms: _38  and  _41
REMARK   18  A    between atoms: _41  and  _42
REMARK   19  A    between atoms: _45  and  _47
REMARK   20  A    between atoms: _47  and  _48
REMARK   21  A    between atoms: _47  and  _50
REMARK   22  A    between atoms: _50  and  _51
REMARK   23  A    between atoms: _54  and  _56
REMARK   24  A    between atoms: _56  and  _57
REMARK   25  A    between atoms: _59  and  _61
REMARK   26  A    between atoms: _61  and  _62
REMARK   27  A    between atoms: _65  and  _67
REMARK   28  A    between atoms: _67  and  _68
REMARK   29  A    between atoms: _67  and  _70
REMARK   30  A    between atoms: _70  and  _71
REMARK   31  A    between atoms: _74  and  _76
REMARK   32  A    between atoms: _76  and  _77
REMARK   33  A    between atoms: _76  and  _79
REMARK   34  A    between atoms: _79  and  _80
REMARK   35  A    between atoms: _83  and  _85
REMARK   36  A    between atoms: _85  and  _86
REMARK   37  A    between atoms: _85  and  _88
REMARK   38  A    between atoms: _88  and  _89
REMARK   39  A    between atoms: _92  and  _94
REMARK   40  A    between atoms: _94  and  _95
REMARK   41  A    between atoms: _94  and  _97
REMARK   42  A    between atoms: _100  and  _102
REMARK   43  A    between atoms: _102  and  _103
REMARK   44  A    between atoms: _102  and  _105
REMARK   45  A    between atoms: _105  and  _106
REMARK   46  A    between atoms: _106  and  _107
REMARK   47  A    between atoms: _107  and  _108
REMARK   48  A    between atoms: _108  and  _109
REMARK   49  A    between atoms: _113  and  _115
REMARK   50  A    between atoms: _115  and  _116
REMARK   51  A    between atoms: _115  and  _118
REMARK   52  A    between atoms: _118  and  _119
REMARK   53  A    between atoms: _119  and  _120
REMARK   54  A    between atoms: _122  and  _124
REMARK   55  A    between atoms: _124  and  _125
REMARK   56  A    between atoms: _124  and  _127
REMARK   57  A    between atoms: _127  and  _128
REMARK   58  A    between atoms: _131  and  _133
REMARK   59  A    between atoms: _133  and  _134
REMARK   60  A    between atoms: _136  and  _138
REMARK   61  A    between atoms: _138  and  _139
REMARK   62  A    between atoms: _141  and  _143
REMARK   63  A    between atoms: _143  and  _144
REMARK   64  A    between atoms: _143  and  _146
REMARK   65  A    between atoms: _146  and  _147
REMARK   66  A    between atoms: _150  and  _152
REMARK   67  A    between atoms: _152  and  _153
REMARK   68  A    between atoms: _155  and  _157
REMARK   69  A    between atoms: _157  and  _158
REMARK   70  A    between atoms: _160  and  _162
REMARK   71  A    between atoms: _162  and  _163
REMARK   72  A    between atoms: _162  and  _165
REMARK   73  A    between atoms: _165  and  _166
REMARK   74  A    between atoms: _169  and  _171
REMARK   75  A    between atoms: _171  and  _172
REMARK   76  A    between atoms: _171  and  _174
REMARK   77  A    between atoms: _177  and  _179
REMARK   78  A    between atoms: _179  and  _180
REMARK   79  A    between atoms: _179  and  _182
REMARK   80  A    between atoms: _182  and  _183
REMARK   81  A    between atoms: _187  and  _188
REMARK   82  A    between atoms: _193  and  _195
REMARK   83  A    between atoms: _195  and  _196
REMARK   84  A    between atoms: _195  and  _198
REMARK   85  A    between atoms: _198  and  _199
REMARK   86  A    between atoms: _203  and  _204
REMARK   87  A    between atoms: _209  and  _211
REMARK   88  A    between atoms: _211  and  _212
REMARK   89  A    between atoms: _211  and  _214
REMARK   90  A    between atoms: _217  and  _219
REMARK   91  A    between atoms: _219  and  _220
REMARK   92  A    between atoms: _219  and  _222
REMARK   93  A    between atoms: _222  and  _223
REMARK   94  A    between atoms: _228  and  _230
REMARK   95  A    between atoms: _230  and  _231
REMARK   96  A    between atoms: _230  and  _233
REMARK   97  A    between atoms: _233  and  _234
REMARK   98  A    between atoms: _237  and  _239
REMARK   99  A    between atoms: _239  and  _240
REMARK  100  A    between atoms: _239  and  _242
REMARK  101  A    between atoms: _242  and  _243
REMARK  102  A    between atoms: _246  and  _248
REMARK  103  A    between atoms: _248  and  _249
REMARK  104  A    between atoms: _251  and  _253
REMARK  105  A    between atoms: _253  and  _254
REMARK  106  A    between atoms: _253  and  _256
REMARK  107  A    between atoms: _256  and  _257
REMARK  108  A    between atoms: _257  and  _258
REMARK  109  A    between atoms: _258  and  _259
REMARK  110  A    between atoms: _268  and  _270
REMARK  111  A    between atoms: _270  and  _271
REMARK  112  A    between atoms: _270  and  _273
REMARK  113  A    between atoms: _273  and  _274
REMARK  114  A    between atoms: _279  and  _281
REMARK  115  A    between atoms: _281  and  _282
REMARK  116  A    between atoms: _281  and  _284
REMARK  117  A    between atoms: _284  and  _285
REMARK  118  A    between atoms: _285  and  _286
REMARK  119  A    between atoms: _286  and  _287
REMARK  120  A    between atoms: _296  and  _298
REMARK  121  A    between atoms: _298  and  _299
REMARK  122  A    between atoms: _298  and  _301
REMARK  123  A    between atoms: _301  and  _302
REMARK  124  A    between atoms: _305  and  _307
REMARK  125  A    between atoms: _307  and  _308
REMARK  126  A    between atoms: _307  and  _310
REMARK  127  A    between atoms: _310  and  _311
REMARK  128  A    between atoms: _314  and  _316
REMARK  129  A    between atoms: _316  and  _317
REMARK  130  A    between atoms: _316  and  _319
REMARK  131  A    between atoms: _319  and  _320
REMARK  132  A    between atoms: _323  and  _325
REMARK  133  A    between atoms: _325  and  _326
REMARK  134  A    between atoms: _325  and  _328
REMARK  135  A    between atoms: _328  and  _329
REMARK  136  A    between atoms: _332  and  _334
REMARK  137  A    between atoms: _334  and  _335
REMARK  138  A    between atoms: _337  and  _339
REMARK  139  A    between atoms: _339  and  _340
REMARK  140  A    between atoms: _343  and  _345
REMARK  141  A    between atoms: _345  and  _346
REMARK  142  A    between atoms: _345  and  _348
REMARK  143  A    between atoms: _348  and  _349
REMARK  144  A    between atoms: _352  and  _354
REMARK  145  A    between atoms: _354  and  _355
REMARK  146  A    between atoms: _354  and  _357
REMARK  147  A    between atoms: _357  and  _358
REMARK  148  A    between atoms: _361  and  _363
REMARK  149  A    between atoms: _363  and  _364
REMARK  150  A    between atoms: _363  and  _366
REMARK  151  A    between atoms: _366  and  _367
REMARK  152  A    between atoms: _370  and  _372
REMARK  153  A    between atoms: _372  and  _373
REMARK  154  A    between atoms: _372  and  _375
REMARK  155  A    between atoms: _378  and  _380
REMARK  156  A    between atoms: _380  and  _381
REMARK  157  A    between atoms: _380  and  _383
REMARK  158  A    between atoms: _383  and  _384
REMARK  159  A    between atoms: _387  and  _389
REMARK  160  A    between atoms: _389  and  _390
REMARK  161  A    between atoms: _392  and  _394
REMARK  162  A    between atoms: _394  and  _395
REMARK  163  A    between atoms: _397  and  _399
REMARK  164  A    between atoms: _399  and  _400
REMARK  165  A    between atoms: _399  and  _402
REMARK  166  A    between atoms: _402  and  _403
REMARK  167  A    between atoms: _406  and  _408
REMARK  168  A    between atoms: _408  and  _409
REMARK  169  A    between atoms: _411  and  _413
REMARK  170  A    between atoms: _413  and  _414
REMARK  171  A    between atoms: _416  and  _418
REMARK  172  A    between atoms: _418  and  _419
REMARK  173  A    between atoms: _418  and  _421
REMARK  174  A    between atoms: _421  and  _422
REMARK  175  A    between atoms: _425  and  _427
REMARK  176  A    between atoms: _427  and  _428
REMARK  177  A    between atoms: _427  and  _430
REMARK  178  A    between atoms: _430  and  _431
REMARK  179  A    between atoms: _434  and  _436
REMARK  180  A    between atoms: _436  and  _437
REMARK  181  A    between atoms: _436  and  _439
REMARK  182  A    between atoms: _439  and  _440
REMARK  183  A    between atoms: _444  and  _445
REMARK  184  A    between atoms: _450  and  _452
REMARK  185  A    between atoms: _452  and  _453
REMARK  186  A    between atoms: _452  and  _455
REMARK  187  A    between atoms: _458  and  _460
REMARK  188  A    between atoms: _460  and  _461
REMARK  189  A    between atoms: _460  and  _463
REMARK  190  A    between atoms: _463  and  _464
REMARK  191  A    between atoms: _469  and  _471
REMARK  192  A    between atoms: _471  and  _472
REMARK  193  A    between atoms: _471  and  _474
REMARK  194  A    between atoms: _474  and  _475
REMARK  195  A    between atoms: _478  and  _480
REMARK  196  A    between atoms: _480  and  _481
REMARK  197  A    between atoms: _480  and  _483
REMARK  198  A    between atoms: _483  and  _484
REMARK  199  A    between atoms: _487  and  _489
REMARK  200  A    between atoms: _489  and  _490
REMARK  201  A    between atoms: _492  and  _494
REMARK  202  A    between atoms: _494  and  _495
REMARK  203  A    between atoms: _494  and  _497
REMARK  204  A    between atoms: _497  and  _498
REMARK  205  A    between atoms: _498  and  _499
REMARK  206  A    between atoms: _499  and  _500
REMARK  207  A    between atoms: _509  and  _511
REMARK  208  A    between atoms: _511  and  _512
REMARK  209  A    between atoms: _511  and  _514
REMARK  210  A    between atoms: _514  and  _515
REMARK                            x       y       z     vdW  Elec       q    Type
REMARK                         _______ _______ _______ _____ _____    ______ ____
ROOT
ATOM      1  O   HOH     1     -20.696  10.590  -6.742  0.00  0.00    +0.000 OA
ENDROOT
TORSDOF 0
REMARK  Name = ../refined-set-2016/4i8z/4i8z_pocket.pdb
REMARK  210 active torsions:
REMARK  status: ('A' for Active; 'I' for Inactive)
REMARK    1  A    between atoms: _1  and  _3
REMARK    2  A    between atoms: _3  and  _4
REMARK    3  A    between atoms: _3  and  _6
REMARK    4  A    between atoms: _6  and  _7
REMARK    5  A    between atoms: _7  and  _8
REMARK    6  A    between atoms: _8  and  _9
REMARK    7  A    between atoms: _18  and  _20
REMARK    8  A    between atoms: _20  and  _21
REMARK    9  A    between atoms: _20  and  _23
REMARK   10  A    between atoms: _23  and  _24
REMARK   11  A    between atoms: _27  and  _29
REMARK   12  A    between atoms: _29  and  _30
REMARK   13  A    between atoms: _29  and  _32
REMARK   14  A    between atoms: _32  and  _33
REMARK   15  A    between atoms: _36  and  _38
REMARK   16  A    between atoms: _38  and  _39
REMARK   17  A    between atoms: _38  and  _41
REMARK   18  A    between atoms: _41  and  _42
REMARK   19  A    between atoms: _45  and  _47
REMARK   20  A    between atoms: _47  and  _48
REMARK   21  A    between atoms: _47  and  _50
REMARK   22  A    between atoms: _50  and  _51
REMARK   23  A    between atoms: _54  and  _56
REMARK   24  A    between atoms: _56  and  _57
REMARK   25  A    between atoms: _59  and  _61
REMARK   26  A    between atoms: _61  and  _62
REMARK   27  A    between atoms: _65  and  _67
REMARK   28  A    between atoms: _67  and  _68
REMARK   29  A    between atoms: _67  and  _70
REMARK   30  A    between atoms: _70  and  _71
REMARK   31  A    between atoms: _74  and  _76
REMARK   32  A    between atoms: _76  and  _77
REMARK   33  A    between atoms: _76  and  _79
REMARK   34  A    between atoms: _79  and  _80
REMARK   35  A    between atoms: _83  and  _85
REMARK   36  A    between atoms: _85  and  _86
REMARK   37  A    between atoms: _85  and  _88
REMARK   38  A    between atoms: _88  and  _89
REMARK   39  A    between atoms: _92  and  _94
REMARK   40  A    between atoms: _94  and  _95
REMARK   41  A    between atoms: _94  and  _97
REMARK   42  A    between atoms: _100  and  _102
REMARK   43  A    between atoms: _102  and  _103
REMARK   44  A    between atoms: _102  and  _105
REMARK   45  A    between atoms: _105  and  _106
REMARK   46  A    between atoms: _106  and  _107
REMARK   47  A    between atoms: _107  and  _108
REMARK   48  A    between atoms: _108  and  _109
REMARK   49  A    between atoms: _113  and  _115
REMARK   50  A    between atoms: _115  and  _116
REMARK   51  A    between atoms: _115  and  _118
REMARK   52  A    between atoms: _118  and  _119
REMARK   53  A    between atoms: _119  and  _120
REMARK   54  A    between atoms: _122  and  _124
REMARK   55  A    between atoms: _124  and  _125
REMARK   56  A    between atoms: _124  and  _127
REMARK   57  A    between atoms: _127  and  _128
REMARK   58  A    between atoms: _131  and  _133
REMARK   59  A    between atoms: _133  and  _134
REMARK   60  A    between atoms: _136  and  _138
REMARK   61  A    between atoms: _138  and  _139
REMARK   62  A    between atoms: _141  and  _143
REMARK   63  A    between atoms: _143  and  _144
REMARK   64  A    between atoms: _143  and  _146
REMARK   65  A    between atoms: _146  and  _147
REMARK   66  A    between atoms: _150  and  _152
REMARK   67  A    between atoms: _152  and  _153
REMARK   68  A    between atoms: _155  and  _157
REMARK   69  A    between atoms: _157  and  _158
REMARK   70  A    between atoms: _160  and  _162
REMARK   71  A    between atoms: _162  and  _163
REMARK   72  A    between atoms: _162  and  _165
REMARK   73  A    between atoms: _165  and  _166
REMARK   74  A    between atoms: _169  and  _171
REMARK   75  A    between atoms: _171  and  _172
REMARK   76  A    between atoms: _171  and  _174
REMARK   77  A    between atoms: _177  and  _179
REMARK   78  A    between atoms: _179  and  _180
REMARK   79  A    between atoms: _179  and  _182
REMARK   80  A    between atoms: _182  and  _183
REMARK   81  A    between atoms: _187  and  _188
REMARK   82  A    between atoms: _193  and  _195
REMARK   83  A    between atoms: _195  and  _196
REMARK   84  A    between atoms: _195  and  _198
REMARK   85  A    between atoms: _198  and  _199
REMARK   86  A    between atoms: _203  and  _204
REMARK   87  A    between atoms: _209  and  _211
REMARK   88  A    between atoms: _211  and  _212
REMARK   89  A    between atoms: _211  and  _214
REMARK   90  A    between atoms: _217  and  _219
REMARK   91  A    between atoms: _219  and  _220
REMARK   92  A    between atoms: _219  and  _222
REMARK   93  A    between atoms: _222  and  _223
REMARK   94  A    between atoms: _228  and  _230
REMARK   95  A    between atoms: _230  and  _231
REMARK   96  A    between atoms: _230  and  _233
REMARK   97  A    between atoms: _233  and  _234
REMARK   98  A    between atoms: _237  and  _239
REMARK   99  A    between atoms: _239  and  _240
REMARK  100  A    between atoms: _239  and  _242
REMARK  101  A    between atoms: _242  and  _243
REMARK  102  A    between atoms: _246  and  _248
REMARK  103  A    between atoms: _248  and  _249
REMARK  104  A    between atoms: _251  and  _253
REMARK  105  A    between atoms: _253  and  _254
REMARK  106  A    between atoms: _253  and  _256
REMARK  107  A    between atoms: _256  and  _257
REMARK  108  A    between atoms: _257  and  _258
REMARK  109  A    between atoms: _258  and  _259
REMARK  110  A    between atoms: _268  and  _270
REMARK  111  A    between atoms: _270  and  _271
REMARK  112  A    between atoms: _270  and  _273
REMARK  113  A    between atoms: _273  and  _274
REMARK  114  A    between atoms: _279  and  _281
REMARK  115  A    between atoms: _281  and  _282
REMARK  116  A    between atoms: _281  and  _284
REMARK  117  A    between atoms: _284  and  _285
REMARK  118  A    between atoms: _285  and  _286
REMARK  119  A    between atoms: _286  and  _287
REMARK  120  A    between atoms: _296  and  _298
REMARK  121  A    between atoms: _298  and  _299
REMARK  122  A    between atoms: _298  and  _301
REMARK  123  A    between atoms: _301  and  _302
REMARK  124  A    between atoms: _305  and  _307
REMARK  125  A    between atoms: _307  and  _308
REMARK  126  A    between atoms: _307  and  _310
REMARK  127  A    between atoms: _310  and  _311
REMARK  128  A    between atoms: _314  and  _316
REMARK  129  A    between atoms: _316  and  _317
REMARK  130  A    between atoms: _316  and  _319
REMARK  131  A    between atoms: _319  and  _320
REMARK  132  A    between atoms: _323  and  _325
REMARK  133  A    between atoms: _325  and  _326
REMARK  134  A    between atoms: _325  and  _328
REMARK  135  A    between atoms: _328  and  _329
REMARK  136  A    between atoms: _332  and  _334
REMARK  137  A    between atoms: _334  and  _335
REMARK  138  A    between atoms: _337  and  _339
REMARK  139  A    between atoms: _339  and  _340
REMARK  140  A    between atoms: _343  and  _345
REMARK  141  A    between atoms: _345  and  _346
REMARK  142  A    between atoms: _345  and  _348
REMARK  143  A    between atoms: _348  and  _349
REMARK  144  A    between atoms: _352  and  _354
REMARK  145  A    between atoms: _354  and  _355
REMARK  146  A    between atoms: _354  and  _357
REMARK  147  A    between atoms: _357  and  _358
REMARK  148  A    between atoms: _361  and  _363
REMARK  149  A    between atoms: _363  and  _364
REMARK  150  A    between atoms: _363  and  _366
REMARK  151  A    between atoms: _366  and  _367
REMARK  152  A    between atoms: _370  and  _372
REMARK  153  A    between atoms: _372  and  _373
REMARK  154  A    between atoms: _372  and  _375
REMARK  155  A    between atoms: _378  and  _380
REMARK  156  A    between atoms: _380  and  _381
REMARK  157  A    between atoms: _380  and  _383
REMARK  158  A    between atoms: _383  and  _384
REMARK  159  A    between atoms: _387  and  _389
REMARK  160  A    between atoms: _389  and  _390
REMARK  161  A    between atoms: _392  and  _394
REMARK  162  A    between atoms: _394  and  _395
REMARK  163  A    between atoms: _397  and  _399
REMARK  164  A    between atoms: _399  and  _400
REMARK  165  A    between atoms: _399  and  _402
REMARK  166  A    between atoms: _402  and  _403
REMARK  167  A    between atoms: _406  and  _408
REMARK  168  A    between atoms: _408  and  _409
REMARK  169  A    between atoms: _411  and  _413
REMARK  170  A    between atoms: _413  and  _414
REMARK  171  A    between atoms: _416  and  _418
REMARK  172  A    between atoms: _418  and  _419
REMARK  173  A    between atoms: _418  and  _421
REMARK  174  A    between atoms: _421  and  _422
REMARK  175  A    between atoms: _425  and  _427
REMARK  176  A    between atoms: _427  and  _428
REMARK  177  A    between atoms: _427  and  _430
REMARK  178  A    between atoms: _430  and  _431
REMARK  179  A    between atoms: _434  and  _436
REMARK  180  A    between atoms: _436  and  _437
REMARK  181  A    between atoms: _436  and  _439
REMARK  182  A    between atoms: _439  and  _440
REMARK  183  A    between atoms: _444  and  _445
REMARK  184  A    between atoms: _450  and  _452
REMARK  185  A    between atoms: _452  and  _453
REMARK  186  A    between atoms: _452  and  _455
REMARK  187  A    between atoms: _458  and  _460
REMARK  188  A    between atoms: _460  and  _461
REMARK  189  A    between atoms: _460  and  _463
REMARK  190  A    between atoms: _463  and  _464
REMARK  191  A    between atoms: _469  and  _471
REMARK  192  A    between atoms: _471  and  _472
REMARK  193  A    between atoms: _471  and  _474
REMARK  194  A    between atoms: _474  and  _475
REMARK  195  A    between atoms: _478  and  _480
REMARK  196  A    between atoms: _480  and  _481
REMARK  197  A    between atoms: _480  and  _483
REMARK  198  A    between atoms: _483  and  _484
REMARK  199  A    between atoms: _487  and  _489
REMARK  200  A    between atoms: _489  and  _490
REMARK  201  A    between atoms: _492  and  _494
REMARK  202  A    between atoms: _494  and  _495
REMARK  203  A    between atoms: _494  and  _497
REMARK  204  A    between atoms: _497  and  _498
REMARK  205  A    between atoms: _498  and  _499
REMARK  206  A    between atoms: _499  and  _500
REMARK  207  A    between atoms: _509  and  _511
REMARK  208  A    between atoms: _511  and  _512
REMARK  209  A    between atoms: _511  and  _514
REMARK  210  A    between atoms: _514  and  _515
REMARK                            x       y       z     vdW  Elec       q    Type
REMARK                         _______ _______ _______ _____ _____    ______ ____
ROOT
ATOM      1  O   HOH     1     -24.717   5.069  -4.908  0.00  0.00    +0.000 OA
ENDROOT
TORSDOF 0
REMARK  Name = ../refined-set-2016/4i8z/4i8z_pocket.pdb
REMARK  210 active torsions:
REMARK  status: ('A' for Active; 'I' for Inactive)
REMARK    1  A    between atoms: _1  and  _3
REMARK    2  A    between atoms: _3  and  _4
REMARK    3  A    between atoms: _3  and  _6
REMARK    4  A    between atoms: _6  and  _7
REMARK    5  A    between atoms: _7  and  _8
REMARK    6  A    between atoms: _8  and  _9
REMARK    7  A    between atoms: _18  and  _20
REMARK    8  A    between atoms: _20  and  _21
REMARK    9  A    between atoms: _20  and  _23
REMARK   10  A    between atoms: _23  and  _24
REMARK   11  A    between atoms: _27  and  _29
REMARK   12  A    between atoms: _29  and  _30
REMARK   13  A    between atoms: _29  and  _32
REMARK   14  A    between atoms: _32  and  _33
REMARK   15  A    between atoms: _36  and  _38
REMARK   16  A    between atoms: _38  and  _39
REMARK   17  A    between atoms: _38  and  _41
REMARK   18  A    between atoms: _41  and  _42
REMARK   19  A    between atoms: _45  and  _47
REMARK   20  A    between atoms: _47  and  _48
REMARK   21  A    between atoms: _47  and  _50
REMARK   22  A    between atoms: _50  and  _51
REMARK   23  A    between atoms: _54  and  _56
REMARK   24  A    between atoms: _56  and  _57
REMARK   25  A    between atoms: _59  and  _61
REMARK   26  A    between atoms: _61  and  _62
REMARK   27  A    between atoms: _65  and  _67
REMARK   28  A    between atoms: _67  and  _68
REMARK   29  A    between atoms: _67  and  _70
REMARK   30  A    between atoms: _70  and  _71
REMARK   31  A    between atoms: _74  and  _76
REMARK   32  A    between atoms: _76  and  _77
REMARK   33  A    between atoms: _76  and  _79
REMARK   34  A    between atoms: _79  and  _80
REMARK   35  A    between atoms: _83  and  _85
REMARK   36  A    between atoms: _85  and  _86
REMARK   37  A    between atoms: _85  and  _88
REMARK   38  A    between atoms: _88  and  _89
REMARK   39  A    between atoms: _92  and  _94
REMARK   40  A    between atoms: _94  and  _95
REMARK   41  A    between atoms: _94  and  _97
REMARK   42  A    between atoms: _100  and  _102
REMARK   43  A    between atoms: _102  and  _103
REMARK   44  A    between atoms: _102  and  _105
REMARK   45  A    between atoms: _105  and  _106
REMARK   46  A    between atoms: _106  and  _107
REMARK   47  A    between atoms: _107  and  _108
REMARK   48  A    between atoms: _108  and  _109
REMARK   49  A    between atoms: _113  and  _115
REMARK   50  A    between atoms: _115  and  _116
REMARK   51  A    between atoms: _115  and  _118
REMARK   52  A    between atoms: _118  and  _119
REMARK   53  A    between atoms: _119  and  _120
REMARK   54  A    between atoms: _122  and  _124
REMARK   55  A    between atoms: _124  and  _125
REMARK   56  A    between atoms: _124  and  _127
REMARK   57  A    between atoms: _127  and  _128
REMARK   58  A    between atoms: _131  and  _133
REMARK   59  A    between atoms: _133  and  _134
REMARK   60  A    between atoms: _136  and  _138
REMARK   61  A    between atoms: _138  and  _139
REMARK   62  A    between atoms: _141  and  _143
REMARK   63  A    between atoms: _143  and  _144
REMARK   64  A    between atoms: _143  and  _146
REMARK   65  A    between atoms: _146  and  _147
REMARK   66  A    between atoms: _150  and  _152
REMARK   67  A    between atoms: _152  and  _153
REMARK   68  A    between atoms: _155  and  _157
REMARK   69  A    between atoms: _157  and  _158
REMARK   70  A    between atoms: _160  and  _162
REMARK   71  A    between atoms: _162  and  _163
REMARK   72  A    between atoms: _162  and  _165
REMARK   73  A    between atoms: _165  and  _166
REMARK   74  A    between atoms: _169  and  _171
REMARK   75  A    between atoms: _171  and  _172
REMARK   76  A    between atoms: _171  and  _174
REMARK   77  A    between atoms: _177  and  _179
REMARK   78  A    between atoms: _179  and  _180
REMARK   79  A    between atoms: _179  and  _182
REMARK   80  A    between atoms: _182  and  _183
REMARK   81  A    between atoms: _187  and  _188
REMARK   82  A    between atoms: _193  and  _195
REMARK   83  A    between atoms: _195  and  _196
REMARK   84  A    between atoms: _195  and  _198
REMARK   85  A    between atoms: _198  and  _199
REMARK   86  A    between atoms: _203  and  _204
REMARK   87  A    between atoms: _209  and  _211
REMARK   88  A    between atoms: _211  and  _212
REMARK   89  A    between atoms: _211  and  _214
REMARK   90  A    between atoms: _217  and  _219
REMARK   91  A    between atoms: _219  and  _220
REMARK   92  A    between atoms: _219  and  _222
REMARK   93  A    between atoms: _222  and  _223
REMARK   94  A    between atoms: _228  and  _230
REMARK   95  A    between atoms: _230  and  _231
REMARK   96  A    between atoms: _230  and  _233
REMARK   97  A    between atoms: _233  and  _234
REMARK   98  A    between atoms: _237  and  _239
REMARK   99  A    between atoms: _239  and  _240
REMARK  100  A    between atoms: _239  and  _242
REMARK  101  A    between atoms: _242  and  _243
REMARK  102  A    between atoms: _246  and  _248
REMARK  103  A    between atoms: _248  and  _249
REMARK  104  A    between atoms: _251  and  _253
REMARK  105  A    between atoms: _253  and  _254
REMARK  106  A    between atoms: _253  and  _256
REMARK  107  A    between atoms: _256  and  _257
REMARK  108  A    between atoms: _257  and  _258
REMARK  109  A    between atoms: _258  and  _259
REMARK  110  A    between atoms: _268  and  _270
REMARK  111  A    between atoms: _270  and  _271
REMARK  112  A    between atoms: _270  and  _273
REMARK  113  A    between atoms: _273  and  _274
REMARK  114  A    between atoms: _279  and  _281
REMARK  115  A    between atoms: _281  and  _282
REMARK  116  A    between atoms: _281  and  _284
REMARK  117  A    between atoms: _284  and  _285
REMARK  118  A    between atoms: _285  and  _286
REMARK  119  A    between atoms: _286  and  _287
REMARK  120  A    between atoms: _296  and  _298
REMARK  121  A    between atoms: _298  and  _299
REMARK  122  A    between atoms: _298  and  _301
REMARK  123  A    between atoms: _301  and  _302
REMARK  124  A    between atoms: _305  and  _307
REMARK  125  A    between atoms: _307  and  _308
REMARK  126  A    between atoms: _307  and  _310
REMARK  127  A    between atoms: _310  and  _311
REMARK  128  A    between atoms: _314  and  _316
REMARK  129  A    between atoms: _316  and  _317
REMARK  130  A    between atoms: _316  and  _319
REMARK  131  A    between atoms: _319  and  _320
REMARK  132  A    between atoms: _323  and  _325
REMARK  133  A    between atoms: _325  and  _326
REMARK  134  A    between atoms: _325  and  _328
REMARK  135  A    between atoms: _328  and  _329
REMARK  136  A    between atoms: _332  and  _334
REMARK  137  A    between atoms: _334  and  _335
REMARK  138  A    between atoms: _337  and  _339
REMARK  139  A    between atoms: _339  and  _340
REMARK  140  A    between atoms: _343  and  _345
REMARK  141  A    between atoms: _345  and  _346
REMARK  142  A    between atoms: _345  and  _348
REMARK  143  A    between atoms: _348  and  _349
REMARK  144  A    between atoms: _352  and  _354
REMARK  145  A    between atoms: _354  and  _355
REMARK  146  A    between atoms: _354  and  _357
REMARK  147  A    between atoms: _357  and  _358
REMARK  148  A    between atoms: _361  and  _363
REMARK  149  A    between atoms: _363  and  _364
REMARK  150  A    between atoms: _363  and  _366
REMARK  151  A    between atoms: _366  and  _367
REMARK  152  A    between atoms: _370  and  _372
REMARK  153  A    between atoms: _372  and  _373
REMARK  154  A    between atoms: _372  and  _375
REMARK  155  A    between atoms: _378  and  _380
REMARK  156  A    between atoms: _380  and  _381
REMARK  157  A    between atoms: _380  and  _383
REMARK  158  A    between atoms: _383  and  _384
REMARK  159  A    between atoms: _387  and  _389
REMARK  160  A    between atoms: _389  and  _390
REMARK  161  A    between atoms: _392  and  _394
REMARK  162  A    between atoms: _394  and  _395
REMARK  163  A    between atoms: _397  and  _399
REMARK  164  A    between atoms: _399  and  _400
REMARK  165  A    between atoms: _399  and  _402
REMARK  166  A    between atoms: _402  and  _403
REMARK  167  A    between atoms: _406  and  _408
REMARK  168  A    between atoms: _408  and  _409
REMARK  169  A    between atoms: _411  and  _413
REMARK  170  A    between atoms: _413  and  _414
REMARK  171  A    between atoms: _416  and  _418
REMARK  172  A    between atoms: _418  and  _419
REMARK  173  A    between atoms: _418  and  _421
REMARK  174  A    between atoms: _421  and  _422
REMARK  175  A    between atoms: _425  and  _427
REMARK  176  A    between atoms: _427  and  _428
REMARK  177  A    between atoms: _427  and  _430
REMARK  178  A    between atoms: _430  and  _431
REMARK  179  A    between atoms: _434  and  _436
REMARK  180  A    between atoms: _436  and  _437
REMARK  181  A    between atoms: _436  and  _439
REMARK  182  A    between atoms: _439  and  _440
REMARK  183  A    between atoms: _444  and  _445
REMARK  184  A    between atoms: _450  and  _452
REMARK  185  A    between atoms: _452  and  _453
REMARK  186  A    between atoms: _452  and  _455
REMARK  187  A    between atoms: _458  and  _460
REMARK  188  A    between atoms: _460  and  _461
REMARK  189  A    between atoms: _460  and  _463
REMARK  190  A    between atoms: _463  and  _464
REMARK  191  A    between atoms: _469  and  _471
REMARK  192  A    between atoms: _471  and  _472
REMARK  193  A    between atoms: _471  and  _474
REMARK  194  A    between atoms: _474  and  _475
REMARK  195  A    between atoms: _478  and  _480
REMARK  196  A    between atoms: _480  and  _481
REMARK  197  A    between atoms: _480  and  _483
REMARK  198  A    between atoms: _483  and  _484
REMARK  199  A    between atoms: _487  and  _489
REMARK  200  A    between atoms: _489  and  _490
REMARK  201  A    between atoms: _492  and  _494
REMARK  202  A    between atoms: _494  and  _495
REMARK  203  A    between atoms: _494  and  _497
REMARK  204  A    between atoms: _497  and  _498
REMARK  205  A    between atoms: _498  and  _499
REMARK  206  A    between atoms: _499  and  _500
REMARK  207  A    between atoms: _509  and  _511
REMARK  208  A    between atoms: _511  and  _512
REMARK  209  A    between atoms: _511  and  _514
REMARK  210  A    between atoms: _514  and  _515
REMARK                            x       y       z     vdW  Elec       q    Type
REMARK                         _______ _______ _______ _____ _____    ______ ____
ROOT
ATOM      1  O   HOH     1     -21.959   5.598  -4.693  0.00  0.00    +0.000 OA
ENDROOT
TORSDOF 0
REMARK  Name = ../refined-set-2016/4i8z/4i8z_pocket.pdb
REMARK  210 active torsions:
REMARK  status: ('A' for Active; 'I' for Inactive)
REMARK    1  A    between atoms: _1  and  _3
REMARK    2  A    between atoms: _3  and  _4
REMARK    3  A    between atoms: _3  and  _6
REMARK    4  A    between atoms: _6  and  _7
REMARK    5  A    between atoms: _7  and  _8
REMARK    6  A    between atoms: _8  and  _9
REMARK    7  A    between atoms: _18  and  _20
REMARK    8  A    between atoms: _20  and  _21
REMARK    9  A    between atoms: _20  and  _23
REMARK   10  A    between atoms: _23  and  _24
REMARK   11  A    between atoms: _27  and  _29
REMARK   12  A    between atoms: _29  and  _30
REMARK   13  A    between atoms: _29  and  _32
REMARK   14  A    between atoms: _32  and  _33
REMARK   15  A    between atoms: _36  and  _38
REMARK   16  A    between atoms: _38  and  _39
REMARK   17  A    between atoms: _38  and  _41
REMARK   18  A    between atoms: _41  and  _42
REMARK   19  A    between atoms: _45  and  _47
REMARK   20  A    between atoms: _47  and  _48
REMARK   21  A    between atoms: _47  and  _50
REMARK   22  A    between atoms: _50  and  _51
REMARK   23  A    between atoms: _54  and  _56
REMARK   24  A    between atoms: _56  and  _57
REMARK   25  A    between atoms: _59  and  _61
REMARK   26  A    between atoms: _61  and  _62
REMARK   27  A    between atoms: _65  and  _67
REMARK   28  A    between atoms: _67  and  _68
REMARK   29  A    between atoms: _67  and  _70
REMARK   30  A    between atoms: _70  and  _71
REMARK   31  A    between atoms: _74  and  _76
REMARK   32  A    between atoms: _76  and  _77
REMARK   33  A    between atoms: _76  and  _79
REMARK   34  A    between atoms: _79  and  _80
REMARK   35  A    between atoms: _83  and  _85
REMARK   36  A    between atoms: _85  and  _86
REMARK   37  A    between atoms: _85  and  _88
REMARK   38  A    between atoms: _88  and  _89
REMARK   39  A    between atoms: _92  and  _94
REMARK   40  A    between atoms: _94  and  _95
REMARK   41  A    between atoms: _94  and  _97
REMARK   42  A    between atoms: _100  and  _102
REMARK   43  A    between atoms: _102  and  _103
REMARK   44  A    between atoms: _102  and  _105
REMARK   45  A    between atoms: _105  and  _106
REMARK   46  A    between atoms: _106  and  _107
REMARK   47  A    between atoms: _107  and  _108
REMARK   48  A    between atoms: _108  and  _109
REMARK   49  A    between atoms: _113  and  _115
REMARK   50  A    between atoms: _115  and  _116
REMARK   51  A    between atoms: _115  and  _118
REMARK   52  A    between atoms: _118  and  _119
REMARK   53  A    between atoms: _119  and  _120
REMARK   54  A    between atoms: _122  and  _124
REMARK   55  A    between atoms: _124  and  _125
REMARK   56  A    between atoms: _124  and  _127
REMARK   57  A    between atoms: _127  and  _128
REMARK   58  A    between atoms: _131  and  _133
REMARK   59  A    between atoms: _133  and  _134
REMARK   60  A    between atoms: _136  and  _138
REMARK   61  A    between atoms: _138  and  _139
REMARK   62  A    between atoms: _141  and  _143
REMARK   63  A    between atoms: _143  and  _144
REMARK   64  A    between atoms: _143  and  _146
REMARK   65  A    between atoms: _146  and  _147
REMARK   66  A    between atoms: _150  and  _152
REMARK   67  A    between atoms: _152  and  _153
REMARK   68  A    between atoms: _155  and  _157
REMARK   69  A    between atoms: _157  and  _158
REMARK   70  A    between atoms: _160  and  _162
REMARK   71  A    between atoms: _162  and  _163
REMARK   72  A    between atoms: _162  and  _165
REMARK   73  A    between atoms: _165  and  _166
REMARK   74  A    between atoms: _169  and  _171
REMARK   75  A    between atoms: _171  and  _172
REMARK   76  A    between atoms: _171  and  _174
REMARK   77  A    between atoms: _177  and  _179
REMARK   78  A    between atoms: _179  and  _180
REMARK   79  A    between atoms: _179  and  _182
REMARK   80  A    between atoms: _182  and  _183
REMARK   81  A    between atoms: _187  and  _188
REMARK   82  A    between atoms: _193  and  _195
REMARK   83  A    between atoms: _195  and  _196
REMARK   84  A    between atoms: _195  and  _198
REMARK   85  A    between atoms: _198  and  _199
REMARK   86  A    between atoms: _203  and  _204
REMARK   87  A    between atoms: _209  and  _211
REMARK   88  A    between atoms: _211  and  _212
REMARK   89  A    between atoms: _211  and  _214
REMARK   90  A    between atoms: _217  and  _219
REMARK   91  A    between atoms: _219  and  _220
REMARK   92  A    between atoms: _219  and  _222
REMARK   93  A    between atoms: _222  and  _223
REMARK   94  A    between atoms: _228  and  _230
REMARK   95  A    between atoms: _230  and  _231
REMARK   96  A    between atoms: _230  and  _233
REMARK   97  A    between atoms: _233  and  _234
REMARK   98  A    between atoms: _237  and  _239
REMARK   99  A    between atoms: _239  and  _240
REMARK  100  A    between atoms: _239  and  _242
REMARK  101  A    between atoms: _242  and  _243
REMARK  102  A    between atoms: _246  and  _248
REMARK  103  A    between atoms: _248  and  _249
REMARK  104  A    between atoms: _251  and  _253
REMARK  105  A    between atoms: _253  and  _254
REMARK  106  A    between atoms: _253  and  _256
REMARK  107  A    between atoms: _256  and  _257
REMARK  108  A    between atoms: _257  and  _258
REMARK  109  A    between atoms: _258  and  _259
REMARK  110  A    between atoms: _268  and  _270
REMARK  111  A    between atoms: _270  and  _271
REMARK  112  A    between atoms: _270  and  _273
REMARK  113  A    between atoms: _273  and  _274
REMARK  114  A    between atoms: _279  and  _281
REMARK  115  A    between atoms: _281  and  _282
REMARK  116  A    between atoms: _281  and  _284
REMARK  117  A    between atoms: _284  and  _285
REMARK  118  A    between atoms: _285  and  _286
REMARK  119  A    between atoms: _286  and  _287
REMARK  120  A    between atoms: _296  and  _298
REMARK  121  A    between atoms: _298  and  _299
REMARK  122  A    between atoms: _298  and  _301
REMARK  123  A    between atoms: _301  and  _302
REMARK  124  A    between atoms: _305  and  _307
REMARK  125  A    between atoms: _307  and  _308
REMARK  126  A    between atoms: _307  and  _310
REMARK  127  A    between atoms: _310  and  _311
REMARK  128  A    between atoms: _314  and  _316
REMARK  129  A    between atoms: _316  and  _317
REMARK  130  A    between atoms: _316  and  _319
REMARK  131  A    between atoms: _319  and  _320
REMARK  132  A    between atoms: _323  and  _325
REMARK  133  A    between atoms: _325  and  _326
REMARK  134  A    between atoms: _325  and  _328
REMARK  135  A    between atoms: _328  and  _329
REMARK  136  A    between atoms: _332  and  _334
REMARK  137  A    between atoms: _334  and  _335
REMARK  138  A    between atoms: _337  and  _339
REMARK  139  A    between atoms: _339  and  _340
REMARK  140  A    between atoms: _343  and  _345
REMARK  141  A    between atoms: _345  and  _346
REMARK  142  A    between atoms: _345  and  _348
REMARK  143  A    between atoms: _348  and  _349
REMARK  144  A    between atoms: _352  and  _354
REMARK  145  A    between atoms: _354  and  _355
REMARK  146  A    between atoms: _354  and  _357
REMARK  147  A    between atoms: _357  and  _358
REMARK  148  A    between atoms: _361  and  _363
REMARK  149  A    between atoms: _363  and  _364
REMARK  150  A    between atoms: _363  and  _366
REMARK  151  A    between atoms: _366  and  _367
REMARK  152  A    between atoms: _370  and  _372
REMARK  153  A    between atoms: _372  and  _373
REMARK  154  A    between atoms: _372  and  _375
REMARK  155  A    between atoms: _378  and  _380
REMARK  156  A    between atoms: _380  and  _381
REMARK  157  A    between atoms: _380  and  _383
REMARK  158  A    between atoms: _383  and  _384
REMARK  159  A    between atoms: _387  and  _389
REMARK  160  A    between atoms: _389  and  _390
REMARK  161  A    between atoms: _392  and  _394
REMARK  162  A    between atoms: _394  and  _395
REMARK  163  A    between atoms: _397  and  _399
REMARK  164  A    between atoms: _399  and  _400
REMARK  165  A    between atoms: _399  and  _402
REMARK  166  A    between atoms: _402  and  _403
REMARK  167  A    between atoms: _406  and  _408
REMARK  168  A    between atoms: _408  and  _409
REMARK  169  A    between atoms: _411  and  _413
REMARK  170  A    between atoms: _413  and  _414
REMARK  171  A    between atoms: _416  and  _418
REMARK  172  A    between atoms: _418  and  _419
REMARK  173  A    between atoms: _418  and  _421
REMARK  174  A    between atoms: _421  and  _422
REMARK  175  A    between atoms: _425  and  _427
REMARK  176  A    between atoms: _427  and  _428
REMARK  177  A    between atoms: _427  and  _430
REMARK  178  A    between atoms: _430  and  _431
REMARK  179  A    between atoms: _434  and  _436
REMARK  180  A    between atoms: _436  and  _437
REMARK  181  A    between atoms: _436  and  _439
REMARK  182  A    between atoms: _439  and  _440
REMARK  183  A    between atoms: _444  and  _445
REMARK  184  A    between atoms: _450  and  _452
REMARK  185  A    between atoms: _452  and  _453
REMARK  186  A    between atoms: _452  and  _455
REMARK  187  A    between atoms: _458  and  _460
REMARK  188  A    between atoms: _460  and  _461
REMARK  189  A    between atoms: _460  and  _463
REMARK  190  A    between atoms: _463  and  _464
REMARK  191  A    between atoms: _469  and  _471
REMARK  192  A    between atoms: _471  and  _472
REMARK  193  A    between atoms: _471  and  _474
REMARK  194  A    between atoms: _474  and  _475
REMARK  195  A    between atoms: _478  and  _480
REMARK  196  A    between atoms: _480  and  _481
REMARK  197  A    between atoms: _480  and  _483
REMARK  198  A    between atoms: _483  and  _484
REMARK  199  A    between atoms: _487  and  _489
REMARK  200  A    between atoms: _489  and  _490
REMARK  201  A    between atoms: _492  and  _494
REMARK  202  A    between atoms: _494  and  _495
REMARK  203  A    between atoms: _494  and  _497
REMARK  204  A    between atoms: _497  and  _498
REMARK  205  A    between atoms: _498  and  _499
REMARK  206  A    between atoms: _499  and  _500
REMARK  207  A    between atoms: _509  and  _511
REMARK  208  A    between atoms: _511  and  _512
REMARK  209  A    between atoms: _511  and  _514
REMARK  210  A    between atoms: _514  and  _515
REMARK                            x       y       z     vdW  Elec       q    Type
REMARK                         _______ _______ _______ _____ _____    ______ ____
ROOT
ATOM      1  O   HOH     1     -24.875   3.799 -11.964  0.00  0.00    +0.000 OA
ENDROOT
TORSDOF 0
REMARK  Name = ../refined-set-2016/4i8z/4i8z_pocket.pdb
REMARK  210 active torsions:
REMARK  status: ('A' for Active; 'I' for Inactive)
REMARK    1  A    between atoms: _1  and  _3
REMARK    2  A    between atoms: _3  and  _4
REMARK    3  A    between atoms: _3  and  _6
REMARK    4  A    between atoms: _6  and  _7
REMARK    5  A    between atoms: _7  and  _8
REMARK    6  A    between atoms: _8  and  _9
REMARK    7  A    between atoms: _18  and  _20
REMARK    8  A    between atoms: _20  and  _21
REMARK    9  A    between atoms: _20  and  _23
REMARK   10  A    between atoms: _23  and  _24
REMARK   11  A    between atoms: _27  and  _29
REMARK   12  A    between atoms: _29  and  _30
REMARK   13  A    between atoms: _29  and  _32
REMARK   14  A    between atoms: _32  and  _33
REMARK   15  A    between atoms: _36  and  _38
REMARK   16  A    between atoms: _38  and  _39
REMARK   17  A    between atoms: _38  and  _41
REMARK   18  A    between atoms: _41  and  _42
REMARK   19  A    between atoms: _45  and  _47
REMARK   20  A    between atoms: _47  and  _48
REMARK   21  A    between atoms: _47  and  _50
REMARK   22  A    between atoms: _50  and  _51
REMARK   23  A    between atoms: _54  and  _56
REMARK   24  A    between atoms: _56  and  _57
REMARK   25  A    between atoms: _59  and  _61
REMARK   26  A    between atoms: _61  and  _62
REMARK   27  A    between atoms: _65  and  _67
REMARK   28  A    between atoms: _67  and  _68
REMARK   29  A    between atoms: _67  and  _70
REMARK   30  A    between atoms: _70  and  _71
REMARK   31  A    between atoms: _74  and  _76
REMARK   32  A    between atoms: _76  and  _77
REMARK   33  A    between atoms: _76  and  _79
REMARK   34  A    between atoms: _79  and  _80
REMARK   35  A    between atoms: _83  and  _85
REMARK   36  A    between atoms: _85  and  _86
REMARK   37  A    between atoms: _85  and  _88
REMARK   38  A    between atoms: _88  and  _89
REMARK   39  A    between atoms: _92  and  _94
REMARK   40  A    between atoms: _94  and  _95
REMARK   41  A    between atoms: _94  and  _97
REMARK   42  A    between atoms: _100  and  _102
REMARK   43  A    between atoms: _102  and  _103
REMARK   44  A    between atoms: _102  and  _105
REMARK   45  A    between atoms: _105  and  _106
REMARK   46  A    between atoms: _106  and  _107
REMARK   47  A    between atoms: _107  and  _108
REMARK   48  A    between atoms: _108  and  _109
REMARK   49  A    between atoms: _113  and  _115
REMARK   50  A    between atoms: _115  and  _116
REMARK   51  A    between atoms: _115  and  _118
REMARK   52  A    between atoms: _118  and  _119
REMARK   53  A    between atoms: _119  and  _120
REMARK   54  A    between atoms: _122  and  _124
REMARK   55  A    between atoms: _124  and  _125
REMARK   56  A    between atoms: _124  and  _127
REMARK   57  A    between atoms: _127  and  _128
REMARK   58  A    between atoms: _131  and  _133
REMARK   59  A    between atoms: _133  and  _134
REMARK   60  A    between atoms: _136  and  _138
REMARK   61  A    between atoms: _138  and  _139
REMARK   62  A    between atoms: _141  and  _143
REMARK   63  A    between atoms: _143  and  _144
REMARK   64  A    between atoms: _143  and  _146
REMARK   65  A    between atoms: _146  and  _147
REMARK   66  A    between atoms: _150  and  _152
REMARK   67  A    between atoms: _152  and  _153
REMARK   68  A    between atoms: _155  and  _157
REMARK   69  A    between atoms: _157  and  _158
REMARK   70  A    between atoms: _160  and  _162
REMARK   71  A    between atoms: _162  and  _163
REMARK   72  A    between atoms: _162  and  _165
REMARK   73  A    between atoms: _165  and  _166
REMARK   74  A    between atoms: _169  and  _171
REMARK   75  A    between atoms: _171  and  _172
REMARK   76  A    between atoms: _171  and  _174
REMARK   77  A    between atoms: _177  and  _179
REMARK   78  A    between atoms: _179  and  _180
REMARK   79  A    between atoms: _179  and  _182
REMARK   80  A    between atoms: _182  and  _183
REMARK   81  A    between atoms: _187  and  _188
REMARK   82  A    between atoms: _193  and  _195
REMARK   83  A    between atoms: _195  and  _196
REMARK   84  A    between atoms: _195  and  _198
REMARK   85  A    between atoms: _198  and  _199
REMARK   86  A    between atoms: _203  and  _204
REMARK   87  A    between atoms: _209  and  _211
REMARK   88  A    between atoms: _211  and  _212
REMARK   89  A    between atoms: _211  and  _214
REMARK   90  A    between atoms: _217  and  _219
REMARK   91  A    between atoms: _219  and  _220
REMARK   92  A    between atoms: _219  and  _222
REMARK   93  A    between atoms: _222  and  _223
REMARK   94  A    between atoms: _228  and  _230
REMARK   95  A    between atoms: _230  and  _231
REMARK   96  A    between atoms: _230  and  _233
REMARK   97  A    between atoms: _233  and  _234
REMARK   98  A    between atoms: _237  and  _239
REMARK   99  A    between atoms: _239  and  _240
REMARK  100  A    between atoms: _239  and  _242
REMARK  101  A    between atoms: _242  and  _243
REMARK  102  A    between atoms: _246  and  _248
REMARK  103  A    between atoms: _248  and  _249
REMARK  104  A    between atoms: _251  and  _253
REMARK  105  A    between atoms: _253  and  _254
REMARK  106  A    between atoms: _253  and  _256
REMARK  107  A    between atoms: _256  and  _257
REMARK  108  A    between atoms: _257  and  _258
REMARK  109  A    between atoms: _258  and  _259
REMARK  110  A    between atoms: _268  and  _270
REMARK  111  A    between atoms: _270  and  _271
REMARK  112  A    between atoms: _270  and  _273
REMARK  113  A    between atoms: _273  and  _274
REMARK  114  A    between atoms: _279  and  _281
REMARK  115  A    between atoms: _281  and  _282
REMARK  116  A    between atoms: _281  and  _284
REMARK  117  A    between atoms: _284  and  _285
REMARK  118  A    between atoms: _285  and  _286
REMARK  119  A    between atoms: _286  and  _287
REMARK  120  A    between atoms: _296  and  _298
REMARK  121  A    between atoms: _298  and  _299
REMARK  122  A    between atoms: _298  and  _301
REMARK  123  A    between atoms: _301  and  _302
REMARK  124  A    between atoms: _305  and  _307
REMARK  125  A    between atoms: _307  and  _308
REMARK  126  A    between atoms: _307  and  _310
REMARK  127  A    between atoms: _310  and  _311
REMARK  128  A    between atoms: _314  and  _316
REMARK  129  A    between atoms: _316  and  _317
REMARK  130  A    between atoms: _316  and  _319
REMARK  131  A    between atoms: _319  and  _320
REMARK  132  A    between atoms: _323  and  _325
REMARK  133  A    between atoms: _325  and  _326
REMARK  134  A    between atoms: _325  and  _328
REMARK  135  A    between atoms: _328  and  _329
REMARK  136  A    between atoms: _332  and  _334
REMARK  137  A    between atoms: _334  and  _335
REMARK  138  A    between atoms: _337  and  _339
REMARK  139  A    between atoms: _339  and  _340
REMARK  140  A    between atoms: _343  and  _345
REMARK  141  A    between atoms: _345  and  _346
REMARK  142  A    between atoms: _345  and  _348
REMARK  143  A    between atoms: _348  and  _349
REMARK  144  A    between atoms: _352  and  _354
REMARK  145  A    between atoms: _354  and  _355
REMARK  146  A    between atoms: _354  and  _357
REMARK  147  A    between atoms: _357  and  _358
REMARK  148  A    between atoms: _361  and  _363
REMARK  149  A    between atoms: _363  and  _364
REMARK  150  A    between atoms: _363  and  _366
REMARK  151  A    between atoms: _366  and  _367
REMARK  152  A    between atoms: _370  and  _372
REMARK  153  A    between atoms: _372  and  _373
REMARK  154  A    between atoms: _372  and  _375
REMARK  155  A    between atoms: _378  and  _380
REMARK  156  A    between atoms: _380  and  _381
REMARK  157  A    between atoms: _380  and  _383
REMARK  158  A    between atoms: _383  and  _384
REMARK  159  A    between atoms: _387  and  _389
REMARK  160  A    between atoms: _389  and  _390
REMARK  161  A    between atoms: _392  and  _394
REMARK  162  A    between atoms: _394  and  _395
REMARK  163  A    between atoms: _397  and  _399
REMARK  164  A    between atoms: _399  and  _400
REMARK  165  A    between atoms: _399  and  _402
REMARK  166  A    between atoms: _402  and  _403
REMARK  167  A    between atoms: _406  and  _408
REMARK  168  A    between atoms: _408  and  _409
REMARK  169  A    between atoms: _411  and  _413
REMARK  170  A    between atoms: _413  and  _414
REMARK  171  A    between atoms: _416  and  _418
REMARK  172  A    between atoms: _418  and  _419
REMARK  173  A    between atoms: _418  and  _421
REMARK  174  A    between atoms: _421  and  _422
REMARK  175  A    between atoms: _425  and  _427
REMARK  176  A    between atoms: _427  and  _428
REMARK  177  A    between atoms: _427  and  _430
REMARK  178  A    between atoms: _430  and  _431
REMARK  179  A    between atoms: _434  and  _436
REMARK  180  A    between atoms: _436  and  _437
REMARK  181  A    between atoms: _436  and  _439
REMARK  182  A    between atoms: _439  and  _440
REMARK  183  A    between atoms: _444  and  _445
REMARK  184  A    between atoms: _450  and  _452
REMARK  185  A    between atoms: _452  and  _453
REMARK  186  A    between atoms: _452  and  _455
REMARK  187  A    between atoms: _458  and  _460
REMARK  188  A    between atoms: _460  and  _461
REMARK  189  A    between atoms: _460  and  _463
REMARK  190  A    between atoms: _463  and  _464
REMARK  191  A    between atoms: _469  and  _471
REMARK  192  A    between atoms: _471  and  _472
REMARK  193  A    between atoms: _471  and  _474
REMARK  194  A    between atoms: _474  and  _475
REMARK  195  A    between atoms: _478  and  _480
REMARK  196  A    between atoms: _480  and  _481
REMARK  197  A    between atoms: _480  and  _483
REMARK  198  A    between atoms: _483  and  _484
REMARK  199  A    between atoms: _487  and  _489
REMARK  200  A    between atoms: _489  and  _490
REMARK  201  A    between atoms: _492  and  _494
REMARK  202  A    between atoms: _494  and  _495
REMARK  203  A    between atoms: _494  and  _497
REMARK  204  A    between atoms: _497  and  _498
REMARK  205  A    between atoms: _498  and  _499
REMARK  206  A    between atoms: _499  and  _500
REMARK  207  A    between atoms: _509  and  _511
REMARK  208  A    between atoms: _511  and  _512
REMARK  209  A    between atoms: _511  and  _514
REMARK  210  A    between atoms: _514  and  _515
REMARK                            x       y       z     vdW  Elec       q    Type
REMARK                         _______ _______ _______ _____ _____    ______ ____
ROOT
ATOM      1  O   HOH     1     -14.677   4.452  -8.423  0.00  0.00    +0.000 OA
ENDROOT
TORSDOF 0
REMARK  Name = ../refined-set-2016/4i8z/4i8z_pocket.pdb
REMARK  210 active torsions:
REMARK  status: ('A' for Active; 'I' for Inactive)
REMARK    1  A    between atoms: _1  and  _3
REMARK    2  A    between atoms: _3  and  _4
REMARK    3  A    between atoms: _3  and  _6
REMARK    4  A    between atoms: _6  and  _7
REMARK    5  A    between atoms: _7  and  _8
REMARK    6  A    between atoms: _8  and  _9
REMARK    7  A    between atoms: _18  and  _20
REMARK    8  A    between atoms: _20  and  _21
REMARK    9  A    between atoms: _20  and  _23
REMARK   10  A    between atoms: _23  and  _24
REMARK   11  A    between atoms: _27  and  _29
REMARK   12  A    between atoms: _29  and  _30
REMARK   13  A    between atoms: _29  and  _32
REMARK   14  A    between atoms: _32  and  _33
REMARK   15  A    between atoms: _36  and  _38
REMARK   16  A    between atoms: _38  and  _39
REMARK   17  A    between atoms: _38  and  _41
REMARK   18  A    between atoms: _41  and  _42
REMARK   19  A    between atoms: _45  and  _47
REMARK   20  A    between atoms: _47  and  _48
REMARK   21  A    between atoms: _47  and  _50
REMARK   22  A    between atoms: _50  and  _51
REMARK   23  A    between atoms: _54  and  _56
REMARK   24  A    between atoms: _56  and  _57
REMARK   25  A    between atoms: _59  and  _61
REMARK   26  A    between atoms: _61  and  _62
REMARK   27  A    between atoms: _65  and  _67
REMARK   28  A    between atoms: _67  and  _68
REMARK   29  A    between atoms: _67  and  _70
REMARK   30  A    between atoms: _70  and  _71
REMARK   31  A    between atoms: _74  and  _76
REMARK   32  A    between atoms: _76  and  _77
REMARK   33  A    between atoms: _76  and  _79
REMARK   34  A    between atoms: _79  and  _80
REMARK   35  A    between atoms: _83  and  _85
REMARK   36  A    between atoms: _85  and  _86
REMARK   37  A    between atoms: _85  and  _88
REMARK   38  A    between atoms: _88  and  _89
REMARK   39  A    between atoms: _92  and  _94
REMARK   40  A    between atoms: _94  and  _95
REMARK   41  A    between atoms: _94  and  _97
REMARK   42  A    between atoms: _100  and  _102
REMARK   43  A    between atoms: _102  and  _103
REMARK   44  A    between atoms: _102  and  _105
REMARK   45  A    between atoms: _105  and  _106
REMARK   46  A    between atoms: _106  and  _107
REMARK   47  A    between atoms: _107  and  _108
REMARK   48  A    between atoms: _108  and  _109
REMARK   49  A    between atoms: _113  and  _115
REMARK   50  A    between atoms: _115  and  _116
REMARK   51  A    between atoms: _115  and  _118
REMARK   52  A    between atoms: _118  and  _119
REMARK   53  A    between atoms: _119  and  _120
REMARK   54  A    between atoms: _122  and  _124
REMARK   55  A    between atoms: _124  and  _125
REMARK   56  A    between atoms: _124  and  _127
REMARK   57  A    between atoms: _127  and  _128
REMARK   58  A    between atoms: _131  and  _133
REMARK   59  A    between atoms: _133  and  _134
REMARK   60  A    between atoms: _136  and  _138
REMARK   61  A    between atoms: _138  and  _139
REMARK   62  A    between atoms: _141  and  _143
REMARK   63  A    between atoms: _143  and  _144
REMARK   64  A    between atoms: _143  and  _146
REMARK   65  A    between atoms: _146  and  _147
REMARK   66  A    between atoms: _150  and  _152
REMARK   67  A    between atoms: _152  and  _153
REMARK   68  A    between atoms: _155  and  _157
REMARK   69  A    between atoms: _157  and  _158
REMARK   70  A    between atoms: _160  and  _162
REMARK   71  A    between atoms: _162  and  _163
REMARK   72  A    between atoms: _162  and  _165
REMARK   73  A    between atoms: _165  and  _166
REMARK   74  A    between atoms: _169  and  _171
REMARK   75  A    between atoms: _171  and  _172
REMARK   76  A    between atoms: _171  and  _174
REMARK   77  A    between atoms: _177  and  _179
REMARK   78  A    between atoms: _179  and  _180
REMARK   79  A    between atoms: _179  and  _182
REMARK   80  A    between atoms: _182  and  _183
REMARK   81  A    between atoms: _187  and  _188
REMARK   82  A    between atoms: _193  and  _195
REMARK   83  A    between atoms: _195  and  _196
REMARK   84  A    between atoms: _195  and  _198
REMARK   85  A    between atoms: _198  and  _199
REMARK   86  A    between atoms: _203  and  _204
REMARK   87  A    between atoms: _209  and  _211
REMARK   88  A    between atoms: _211  and  _212
REMARK   89  A    between atoms: _211  and  _214
REMARK   90  A    between atoms: _217  and  _219
REMARK   91  A    between atoms: _219  and  _220
REMARK   92  A    between atoms: _219  and  _222
REMARK   93  A    between atoms: _222  and  _223
REMARK   94  A    between atoms: _228  and  _230
REMARK   95  A    between atoms: _230  and  _231
REMARK   96  A    between atoms: _230  and  _233
REMARK   97  A    between atoms: _233  and  _234
REMARK   98  A    between atoms: _237  and  _239
REMARK   99  A    between atoms: _239  and  _240
REMARK  100  A    between atoms: _239  and  _242
REMARK  101  A    between atoms: _242  and  _243
REMARK  102  A    between atoms: _246  and  _248
REMARK  103  A    between atoms: _248  and  _249
REMARK  104  A    between atoms: _251  and  _253
REMARK  105  A    between atoms: _253  and  _254
REMARK  106  A    between atoms: _253  and  _256
REMARK  107  A    between atoms: _256  and  _257
REMARK  108  A    between atoms: _257  and  _258
REMARK  109  A    between atoms: _258  and  _259
REMARK  110  A    between atoms: _268  and  _270
REMARK  111  A    between atoms: _270  and  _271
REMARK  112  A    between atoms: _270  and  _273
REMARK  113  A    between atoms: _273  and  _274
REMARK  114  A    between atoms: _279  and  _281
REMARK  115  A    between atoms: _281  and  _282
REMARK  116  A    between atoms: _281  and  _284
REMARK  117  A    between atoms: _284  and  _285
REMARK  118  A    between atoms: _285  and  _286
REMARK  119  A    between atoms: _286  and  _287
REMARK  120  A    between atoms: _296  and  _298
REMARK  121  A    between atoms: _298  and  _299
REMARK  122  A    between atoms: _298  and  _301
REMARK  123  A    between atoms: _301  and  _302
REMARK  124  A    between atoms: _305  and  _307
REMARK  125  A    between atoms: _307  and  _308
REMARK  126  A    between atoms: _307  and  _310
REMARK  127  A    between atoms: _310  and  _311
REMARK  128  A    between atoms: _314  and  _316
REMARK  129  A    between atoms: _316  and  _317
REMARK  130  A    between atoms: _316  and  _319
REMARK  131  A    between atoms: _319  and  _320
REMARK  132  A    between atoms: _323  and  _325
REMARK  133  A    between atoms: _325  and  _326
REMARK  134  A    between atoms: _325  and  _328
REMARK  135  A    between atoms: _328  and  _329
REMARK  136  A    between atoms: _332  and  _334
REMARK  137  A    between atoms: _334  and  _335
REMARK  138  A    between atoms: _337  and  _339
REMARK  139  A    between atoms: _339  and  _340
REMARK  140  A    between atoms: _343  and  _345
REMARK  141  A    between atoms: _345  and  _346
REMARK  142  A    between atoms: _345  and  _348
REMARK  143  A    between atoms: _348  and  _349
REMARK  144  A    between atoms: _352  and  _354
REMARK  145  A    between atoms: _354  and  _355
REMARK  146  A    between atoms: _354  and  _357
REMARK  147  A    between atoms: _357  and  _358
REMARK  148  A    between atoms: _361  and  _363
REMARK  149  A    between atoms: _363  and  _364
REMARK  150  A    between atoms: _363  and  _366
REMARK  151  A    between atoms: _366  and  _367
REMARK  152  A    between atoms: _370  and  _372
REMARK  153  A    between atoms: _372  and  _373
REMARK  154  A    between atoms: _372  and  _375
REMARK  155  A    between atoms: _378  and  _380
REMARK  156  A    between atoms: _380  and  _381
REMARK  157  A    between atoms: _380  and  _383
REMARK  158  A    between atoms: _383  and  _384
REMARK  159  A    between atoms: _387  and  _389
REMARK  160  A    between atoms: _389  and  _390
REMARK  161  A    between atoms: _392  and  _394
REMARK  162  A    between atoms: _394  and  _395
REMARK  163  A    between atoms: _397  and  _399
REMARK  164  A    between atoms: _399  and  _400
REMARK  165  A    between atoms: _399  and  _402
REMARK  166  A    between atoms: _402  and  _403
REMARK  167  A    between atoms: _406  and  _408
REMARK  168  A    between atoms: _408  and  _409
REMARK  169  A    between atoms: _411  and  _413
REMARK  170  A    between atoms: _413  and  _414
REMARK  171  A    between atoms: _416  and  _418
REMARK  172  A    between atoms: _418  and  _419
REMARK  173  A    between atoms: _418  and  _421
REMARK  174  A    between atoms: _421  and  _422
REMARK  175  A    between atoms: _425  and  _427
REMARK  176  A    between atoms: _427  and  _428
REMARK  177  A    between atoms: _427  and  _430
REMARK  178  A    between atoms: _430  and  _431
REMARK  179  A    between atoms: _434  and  _436
REMARK  180  A    between atoms: _436  and  _437
REMARK  181  A    between atoms: _436  and  _439
REMARK  182  A    between atoms: _439  and  _440
REMARK  183  A    between atoms: _444  and  _445
REMARK  184  A    between atoms: _450  and  _452
REMARK  185  A    between atoms: _452  and  _453
REMARK  186  A    between atoms: _452  and  _455
REMARK  187  A    between atoms: _458  and  _460
REMARK  188  A    between atoms: _460  and  _461
REMARK  189  A    between atoms: _460  and  _463
REMARK  190  A    between atoms: _463  and  _464
REMARK  191  A    between atoms: _469  and  _471
REMARK  192  A    between atoms: _471  and  _472
REMARK  193  A    between atoms: _471  and  _474
REMARK  194  A    between atoms: _474  and  _475
REMARK  195  A    between atoms: _478  and  _480
REMARK  196  A    between atoms: _480  and  _481
REMARK  197  A    between atoms: _480  and  _483
REMARK  198  A    between atoms: _483  and  _484
REMARK  199  A    between atoms: _487  and  _489
REMARK  200  A    between atoms: _489  and  _490
REMARK  201  A    between atoms: _492  and  _494
REMARK  202  A    between atoms: _494  and  _495
REMARK  203  A    between atoms: _494  and  _497
REMARK  204  A    between atoms: _497  and  _498
REMARK  205  A    between atoms: _498  and  _499
REMARK  206  A    between atoms: _499  and  _500
REMARK  207  A    between atoms: _509  and  _511
REMARK  208  A    between atoms: _511  and  _512
REMARK  209  A    between atoms: _511  and  _514
REMARK  210  A    between atoms: _514  and  _515
REMARK                            x       y       z     vdW  Elec       q    Type
REMARK                         _______ _______ _______ _____ _____    ______ ____
ROOT
ATOM      1  O   HOH     1     -21.036 -10.473   3.041  0.00  0.00    +0.000 OA
ENDROOT
TORSDOF 0
REMARK  Name = ../refined-set-2016/4i8z/4i8z_pocket.pdb
REMARK  210 active torsions:
REMARK  status: ('A' for Active; 'I' for Inactive)
REMARK    1  A    between atoms: _1  and  _3
REMARK    2  A    between atoms: _3  and  _4
REMARK    3  A    between atoms: _3  and  _6
REMARK    4  A    between atoms: _6  and  _7
REMARK    5  A    between atoms: _7  and  _8
REMARK    6  A    between atoms: _8  and  _9
REMARK    7  A    between atoms: _18  and  _20
REMARK    8  A    between atoms: _20  and  _21
REMARK    9  A    between atoms: _20  and  _23
REMARK   10  A    between atoms: _23  and  _24
REMARK   11  A    between atoms: _27  and  _29
REMARK   12  A    between atoms: _29  and  _30
REMARK   13  A    between atoms: _29  and  _32
REMARK   14  A    between atoms: _32  and  _33
REMARK   15  A    between atoms: _36  and  _38
REMARK   16  A    between atoms: _38  and  _39
REMARK   17  A    between atoms: _38  and  _41
REMARK   18  A    between atoms: _41  and  _42
REMARK   19  A    between atoms: _45  and  _47
REMARK   20  A    between atoms: _47  and  _48
REMARK   21  A    between atoms: _47  and  _50
REMARK   22  A    between atoms: _50  and  _51
REMARK   23  A    between atoms: _54  and  _56
REMARK   24  A    between atoms: _56  and  _57
REMARK   25  A    between atoms: _59  and  _61
REMARK   26  A    between atoms: _61  and  _62
REMARK   27  A    between atoms: _65  and  _67
REMARK   28  A    between atoms: _67  and  _68
REMARK   29  A    between atoms: _67  and  _70
REMARK   30  A    between atoms: _70  and  _71
REMARK   31  A    between atoms: _74  and  _76
REMARK   32  A    between atoms: _76  and  _77
REMARK   33  A    between atoms: _76  and  _79
REMARK   34  A    between atoms: _79  and  _80
REMARK   35  A    between atoms: _83  and  _85
REMARK   36  A    between atoms: _85  and  _86
REMARK   37  A    between atoms: _85  and  _88
REMARK   38  A    between atoms: _88  and  _89
REMARK   39  A    between atoms: _92  and  _94
REMARK   40  A    between atoms: _94  and  _95
REMARK   41  A    between atoms: _94  and  _97
REMARK   42  A    between atoms: _100  and  _102
REMARK   43  A    between atoms: _102  and  _103
REMARK   44  A    between atoms: _102  and  _105
REMARK   45  A    between atoms: _105  and  _106
REMARK   46  A    between atoms: _106  and  _107
REMARK   47  A    between atoms: _107  and  _108
REMARK   48  A    between atoms: _108  and  _109
REMARK   49  A    between atoms: _113  and  _115
REMARK   50  A    between atoms: _115  and  _116
REMARK   51  A    between atoms: _115  and  _118
REMARK   52  A    between atoms: _118  and  _119
REMARK   53  A    between atoms: _119  and  _120
REMARK   54  A    between atoms: _122  and  _124
REMARK   55  A    between atoms: _124  and  _125
REMARK   56  A    between atoms: _124  and  _127
REMARK   57  A    between atoms: _127  and  _128
REMARK   58  A    between atoms: _131  and  _133
REMARK   59  A    between atoms: _133  and  _134
REMARK   60  A    between atoms: _136  and  _138
REMARK   61  A    between atoms: _138  and  _139
REMARK   62  A    between atoms: _141  and  _143
REMARK   63  A    between atoms: _143  and  _144
REMARK   64  A    between atoms: _143  and  _146
REMARK   65  A    between atoms: _146  and  _147
REMARK   66  A    between atoms: _150  and  _152
REMARK   67  A    between atoms: _152  and  _153
REMARK   68  A    between atoms: _155  and  _157
REMARK   69  A    between atoms: _157  and  _158
REMARK   70  A    between atoms: _160  and  _162
REMARK   71  A    between atoms: _162  and  _163
REMARK   72  A    between atoms: _162  and  _165
REMARK   73  A    between atoms: _165  and  _166
REMARK   74  A    between atoms: _169  and  _171
REMARK   75  A    between atoms: _171  and  _172
REMARK   76  A    between atoms: _171  and  _174
REMARK   77  A    between atoms: _177  and  _179
REMARK   78  A    between atoms: _179  and  _180
REMARK   79  A    between atoms: _179  and  _182
REMARK   80  A    between atoms: _182  and  _183
REMARK   81  A    between atoms: _187  and  _188
REMARK   82  A    between atoms: _193  and  _195
REMARK   83  A    between atoms: _195  and  _196
REMARK   84  A    between atoms: _195  and  _198
REMARK   85  A    between atoms: _198  and  _199
REMARK   86  A    between atoms: _203  and  _204
REMARK   87  A    between atoms: _209  and  _211
REMARK   88  A    between atoms: _211  and  _212
REMARK   89  A    between atoms: _211  and  _214
REMARK   90  A    between atoms: _217  and  _219
REMARK   91  A    between atoms: _219  and  _220
REMARK   92  A    between atoms: _219  and  _222
REMARK   93  A    between atoms: _222  and  _223
REMARK   94  A    between atoms: _228  and  _230
REMARK   95  A    between atoms: _230  and  _231
REMARK   96  A    between atoms: _230  and  _233
REMARK   97  A    between atoms: _233  and  _234
REMARK   98  A    between atoms: _237  and  _239
REMARK   99  A    between atoms: _239  and  _240
REMARK  100  A    between atoms: _239  and  _242
REMARK  101  A    between atoms: _242  and  _243
REMARK  102  A    between atoms: _246  and  _248
REMARK  103  A    between atoms: _248  and  _249
REMARK  104  A    between atoms: _251  and  _253
REMARK  105  A    between atoms: _253  and  _254
REMARK  106  A    between atoms: _253  and  _256
REMARK  107  A    between atoms: _256  and  _257
REMARK  108  A    between atoms: _257  and  _258
REMARK  109  A    between atoms: _258  and  _259
REMARK  110  A    between atoms: _268  and  _270
REMARK  111  A    between atoms: _270  and  _271
REMARK  112  A    between atoms: _270  and  _273
REMARK  113  A    between atoms: _273  and  _274
REMARK  114  A    between atoms: _279  and  _281
REMARK  115  A    between atoms: _281  and  _282
REMARK  116  A    between atoms: _281  and  _284
REMARK  117  A    between atoms: _284  and  _285
REMARK  118  A    between atoms: _285  and  _286
REMARK  119  A    between atoms: _286  and  _287
REMARK  120  A    between atoms: _296  and  _298
REMARK  121  A    between atoms: _298  and  _299
REMARK  122  A    between atoms: _298  and  _301
REMARK  123  A    between atoms: _301  and  _302
REMARK  124  A    between atoms: _305  and  _307
REMARK  125  A    between atoms: _307  and  _308
REMARK  126  A    between atoms: _307  and  _310
REMARK  127  A    between atoms: _310  and  _311
REMARK  128  A    between atoms: _314  and  _316
REMARK  129  A    between atoms: _316  and  _317
REMARK  130  A    between atoms: _316  and  _319
REMARK  131  A    between atoms: _319  and  _320
REMARK  132  A    between atoms: _323  and  _325
REMARK  133  A    between atoms: _325  and  _326
REMARK  134  A    between atoms: _325  and  _328
REMARK  135  A    between atoms: _328  and  _329
REMARK  136  A    between atoms: _332  and  _334
REMARK  137  A    between atoms: _334  and  _335
REMARK  138  A    between atoms: _337  and  _339
REMARK  139  A    between atoms: _339  and  _340
REMARK  140  A    between atoms: _343  and  _345
REMARK  141  A    between atoms: _345  and  _346
REMARK  142  A    between atoms: _345  and  _348
REMARK  143  A    between atoms: _348  and  _349
REMARK  144  A    between atoms: _352  and  _354
REMARK  145  A    between atoms: _354  and  _355
REMARK  146  A    between atoms: _354  and  _357
REMARK  147  A    between atoms: _357  and  _358
REMARK  148  A    between atoms: _361  and  _363
REMARK  149  A    between atoms: _363  and  _364
REMARK  150  A    between atoms: _363  and  _366
REMARK  151  A    between atoms: _366  and  _367
REMARK  152  A    between atoms: _370  and  _372
REMARK  153  A    between atoms: _372  and  _373
REMARK  154  A    between atoms: _372  and  _375
REMARK  155  A    between atoms: _378  and  _380
REMARK  156  A    between atoms: _380  and  _381
REMARK  157  A    between atoms: _380  and  _383
REMARK  158  A    between atoms: _383  and  _384
REMARK  159  A    between atoms: _387  and  _389
REMARK  160  A    between atoms: _389  and  _390
REMARK  161  A    between atoms: _392  and  _394
REMARK  162  A    between atoms: _394  and  _395
REMARK  163  A    between atoms: _397  and  _399
REMARK  164  A    between atoms: _399  and  _400
REMARK  165  A    between atoms: _399  and  _402
REMARK  166  A    between atoms: _402  and  _403
REMARK  167  A    between atoms: _406  and  _408
REMARK  168  A    between atoms: _408  and  _409
REMARK  169  A    between atoms: _411  and  _413
REMARK  170  A    between atoms: _413  and  _414
REMARK  171  A    between atoms: _416  and  _418
REMARK  172  A    between atoms: _418  and  _419
REMARK  173  A    between atoms: _418  and  _421
REMARK  174  A    between atoms: _421  and  _422
REMARK  175  A    between atoms: _425  and  _427
REMARK  176  A    between atoms: _427  and  _428
REMARK  177  A    between atoms: _427  and  _430
REMARK  178  A    between atoms: _430  and  _431
REMARK  179  A    between atoms: _434  and  _436
REMARK  180  A    between atoms: _436  and  _437
REMARK  181  A    between atoms: _436  and  _439
REMARK  182  A    between atoms: _439  and  _440
REMARK  183  A    between atoms: _444  and  _445
REMARK  184  A    between atoms: _450  and  _452
REMARK  185  A    between atoms: _452  and  _453
REMARK  186  A    between atoms: _452  and  _455
REMARK  187  A    between atoms: _458  and  _460
REMARK  188  A    between atoms: _460  and  _461
REMARK  189  A    between atoms: _460  and  _463
REMARK  190  A    between atoms: _463  and  _464
REMARK  191  A    between atoms: _469  and  _471
REMARK  192  A    between atoms: _471  and  _472
REMARK  193  A    between atoms: _471  and  _474
REMARK  194  A    between atoms: _474  and  _475
REMARK  195  A    between atoms: _478  and  _480
REMARK  196  A    between atoms: _480  and  _481
REMARK  197  A    between atoms: _480  and  _483
REMARK  198  A    between atoms: _483  and  _484
REMARK  199  A    between atoms: _487  and  _489
REMARK  200  A    between atoms: _489  and  _490
REMARK  201  A    between atoms: _492  and  _494
REMARK  202  A    between atoms: _494  and  _495
REMARK  203  A    between atoms: _494  and  _497
REMARK  204  A    between atoms: _497  and  _498
REMARK  205  A    between atoms: _498  and  _499
REMARK  206  A    between atoms: _499  and  _500
REMARK  207  A    between atoms: _509  and  _511
REMARK  208  A    between atoms: _511  and  _512
REMARK  209  A    between atoms: _511  and  _514
REMARK  210  A    between atoms: _514  and  _515
REMARK                            x       y       z     vdW  Elec       q    Type
REMARK                         _______ _______ _______ _____ _____    ______ ____
ROOT
ATOM      1  O   HOH     1     -19.215   5.841 -10.924  0.00  0.00    +0.000 OA
ENDROOT
TORSDOF 0
REMARK  Name = ../refined-set-2016/4i8z/4i8z_pocket.pdb
REMARK  210 active torsions:
REMARK  status: ('A' for Active; 'I' for Inactive)
REMARK    1  A    between atoms: _1  and  _3
REMARK    2  A    between atoms: _3  and  _4
REMARK    3  A    between atoms: _3  and  _6
REMARK    4  A    between atoms: _6  and  _7
REMARK    5  A    between atoms: _7  and  _8
REMARK    6  A    between atoms: _8  and  _9
REMARK    7  A    between atoms: _18  and  _20
REMARK    8  A    between atoms: _20  and  _21
REMARK    9  A    between atoms: _20  and  _23
REMARK   10  A    between atoms: _23  and  _24
REMARK   11  A    between atoms: _27  and  _29
REMARK   12  A    between atoms: _29  and  _30
REMARK   13  A    between atoms: _29  and  _32
REMARK   14  A    between atoms: _32  and  _33
REMARK   15  A    between atoms: _36  and  _38
REMARK   16  A    between atoms: _38  and  _39
REMARK   17  A    between atoms: _38  and  _41
REMARK   18  A    between atoms: _41  and  _42
REMARK   19  A    between atoms: _45  and  _47
REMARK   20  A    between atoms: _47  and  _48
REMARK   21  A    between atoms: _47  and  _50
REMARK   22  A    between atoms: _50  and  _51
REMARK   23  A    between atoms: _54  and  _56
REMARK   24  A    between atoms: _56  and  _57
REMARK   25  A    between atoms: _59  and  _61
REMARK   26  A    between atoms: _61  and  _62
REMARK   27  A    between atoms: _65  and  _67
REMARK   28  A    between atoms: _67  and  _68
REMARK   29  A    between atoms: _67  and  _70
REMARK   30  A    between atoms: _70  and  _71
REMARK   31  A    between atoms: _74  and  _76
REMARK   32  A    between atoms: _76  and  _77
REMARK   33  A    between atoms: _76  and  _79
REMARK   34  A    between atoms: _79  and  _80
REMARK   35  A    between atoms: _83  and  _85
REMARK   36  A    between atoms: _85  and  _86
REMARK   37  A    between atoms: _85  and  _88
REMARK   38  A    between atoms: _88  and  _89
REMARK   39  A    between atoms: _92  and  _94
REMARK   40  A    between atoms: _94  and  _95
REMARK   41  A    between atoms: _94  and  _97
REMARK   42  A    between atoms: _100  and  _102
REMARK   43  A    between atoms: _102  and  _103
REMARK   44  A    between atoms: _102  and  _105
REMARK   45  A    between atoms: _105  and  _106
REMARK   46  A    between atoms: _106  and  _107
REMARK   47  A    between atoms: _107  and  _108
REMARK   48  A    between atoms: _108  and  _109
REMARK   49  A    between atoms: _113  and  _115
REMARK   50  A    between atoms: _115  and  _116
REMARK   51  A    between atoms: _115  and  _118
REMARK   52  A    between atoms: _118  and  _119
REMARK   53  A    between atoms: _119  and  _120
REMARK   54  A    between atoms: _122  and  _124
REMARK   55  A    between atoms: _124  and  _125
REMARK   56  A    between atoms: _124  and  _127
REMARK   57  A    between atoms: _127  and  _128
REMARK   58  A    between atoms: _131  and  _133
REMARK   59  A    between atoms: _133  and  _134
REMARK   60  A    between atoms: _136  and  _138
REMARK   61  A    between atoms: _138  and  _139
REMARK   62  A    between atoms: _141  and  _143
REMARK   63  A    between atoms: _143  and  _144
REMARK   64  A    between atoms: _143  and  _146
REMARK   65  A    between atoms: _146  and  _147
REMARK   66  A    between atoms: _150  and  _152
REMARK   67  A    between atoms: _152  and  _153
REMARK   68  A    between atoms: _155  and  _157
REMARK   69  A    between atoms: _157  and  _158
REMARK   70  A    between atoms: _160  and  _162
REMARK   71  A    between atoms: _162  and  _163
REMARK   72  A    between atoms: _162  and  _165
REMARK   73  A    between atoms: _165  and  _166
REMARK   74  A    between atoms: _169  and  _171
REMARK   75  A    between atoms: _171  and  _172
REMARK   76  A    between atoms: _171  and  _174
REMARK   77  A    between atoms: _177  and  _179
REMARK   78  A    between atoms: _179  and  _180
REMARK   79  A    between atoms: _179  and  _182
REMARK   80  A    between atoms: _182  and  _183
REMARK   81  A    between atoms: _187  and  _188
REMARK   82  A    between atoms: _193  and  _195
REMARK   83  A    between atoms: _195  and  _196
REMARK   84  A    between atoms: _195  and  _198
REMARK   85  A    between atoms: _198  and  _199
REMARK   86  A    between atoms: _203  and  _204
REMARK   87  A    between atoms: _209  and  _211
REMARK   88  A    between atoms: _211  and  _212
REMARK   89  A    between atoms: _211  and  _214
REMARK   90  A    between atoms: _217  and  _219
REMARK   91  A    between atoms: _219  and  _220
REMARK   92  A    between atoms: _219  and  _222
REMARK   93  A    between atoms: _222  and  _223
REMARK   94  A    between atoms: _228  and  _230
REMARK   95  A    between atoms: _230  and  _231
REMARK   96  A    between atoms: _230  and  _233
REMARK   97  A    between atoms: _233  and  _234
REMARK   98  A    between atoms: _237  and  _239
REMARK   99  A    between atoms: _239  and  _240
REMARK  100  A    between atoms: _239  and  _242
REMARK  101  A    between atoms: _242  and  _243
REMARK  102  A    between atoms: _246  and  _248
REMARK  103  A    between atoms: _248  and  _249
REMARK  104  A    between atoms: _251  and  _253
REMARK  105  A    between atoms: _253  and  _254
REMARK  106  A    between atoms: _253  and  _256
REMARK  107  A    between atoms: _256  and  _257
REMARK  108  A    between atoms: _257  and  _258
REMARK  109  A    between atoms: _258  and  _259
REMARK  110  A    between atoms: _268  and  _270
REMARK  111  A    between atoms: _270  and  _271
REMARK  112  A    between atoms: _270  and  _273
REMARK  113  A    between atoms: _273  and  _274
REMARK  114  A    between atoms: _279  and  _281
REMARK  115  A    between atoms: _281  and  _282
REMARK  116  A    between atoms: _281  and  _284
REMARK  117  A    between atoms: _284  and  _285
REMARK  118  A    between atoms: _285  and  _286
REMARK  119  A    between atoms: _286  and  _287
REMARK  120  A    between atoms: _296  and  _298
REMARK  121  A    between atoms: _298  and  _299
REMARK  122  A    between atoms: _298  and  _301
REMARK  123  A    between atoms: _301  and  _302
REMARK  124  A    between atoms: _305  and  _307
REMARK  125  A    between atoms: _307  and  _308
REMARK  126  A    between atoms: _307  and  _310
REMARK  127  A    between atoms: _310  and  _311
REMARK  128  A    between atoms: _314  and  _316
REMARK  129  A    between atoms: _316  and  _317
REMARK  130  A    between atoms: _316  and  _319
REMARK  131  A    between atoms: _319  and  _320
REMARK  132  A    between atoms: _323  and  _325
REMARK  133  A    between atoms: _325  and  _326
REMARK  134  A    between atoms: _325  and  _328
REMARK  135  A    between atoms: _328  and  _329
REMARK  136  A    between atoms: _332  and  _334
REMARK  137  A    between atoms: _334  and  _335
REMARK  138  A    between atoms: _337  and  _339
REMARK  139  A    between atoms: _339  and  _340
REMARK  140  A    between atoms: _343  and  _345
REMARK  141  A    between atoms: _345  and  _346
REMARK  142  A    between atoms: _345  and  _348
REMARK  143  A    between atoms: _348  and  _349
REMARK  144  A    between atoms: _352  and  _354
REMARK  145  A    between atoms: _354  and  _355
REMARK  146  A    between atoms: _354  and  _357
REMARK  147  A    between atoms: _357  and  _358
REMARK  148  A    between atoms: _361  and  _363
REMARK  149  A    between atoms: _363  and  _364
REMARK  150  A    between atoms: _363  and  _366
REMARK  151  A    between atoms: _366  and  _367
REMARK  152  A    between atoms: _370  and  _372
REMARK  153  A    between atoms: _372  and  _373
REMARK  154  A    between atoms: _372  and  _375
REMARK  155  A    between atoms: _378  and  _380
REMARK  156  A    between atoms: _380  and  _381
REMARK  157  A    between atoms: _380  and  _383
REMARK  158  A    between atoms: _383  and  _384
REMARK  159  A    between atoms: _387  and  _389
REMARK  160  A    between atoms: _389  and  _390
REMARK  161  A    between atoms: _392  and  _394
REMARK  162  A    between atoms: _394  and  _395
REMARK  163  A    between atoms: _397  and  _399
REMARK  164  A    between atoms: _399  and  _400
REMARK  165  A    between atoms: _399  and  _402
REMARK  166  A    between atoms: _402  and  _403
REMARK  167  A    between atoms: _406  and  _408
REMARK  168  A    between atoms: _408  and  _409
REMARK  169  A    between atoms: _411  and  _413
REMARK  170  A    between atoms: _413  and  _414
REMARK  171  A    between atoms: _416  and  _418
REMARK  172  A    between atoms: _418  and  _419
REMARK  173  A    between atoms: _418  and  _421
REMARK  174  A    between atoms: _421  and  _422
REMARK  175  A    between atoms: _425  and  _427
REMARK  176  A    between atoms: _427  and  _428
REMARK  177  A    between atoms: _427  and  _430
REMARK  178  A    between atoms: _430  and  _431
REMARK  179  A    between atoms: _434  and  _436
REMARK  180  A    between atoms: _436  and  _437
REMARK  181  A    between atoms: _436  and  _439
REMARK  182  A    between atoms: _439  and  _440
REMARK  183  A    between atoms: _444  and  _445
REMARK  184  A    between atoms: _450  and  _452
REMARK  185  A    between atoms: _452  and  _453
REMARK  186  A    between atoms: _452  and  _455
REMARK  187  A    between atoms: _458  and  _460
REMARK  188  A    between atoms: _460  and  _461
REMARK  189  A    between atoms: _460  and  _463
REMARK  190  A    between atoms: _463  and  _464
REMARK  191  A    between atoms: _469  and  _471
REMARK  192  A    between atoms: _471  and  _472
REMARK  193  A    between atoms: _471  and  _474
REMARK  194  A    between atoms: _474  and  _475
REMARK  195  A    between atoms: _478  and  _480
REMARK  196  A    between atoms: _480  and  _481
REMARK  197  A    between atoms: _480  and  _483
REMARK  198  A    between atoms: _483  and  _484
REMARK  199  A    between atoms: _487  and  _489
REMARK  200  A    between atoms: _489  and  _490
REMARK  201  A    between atoms: _492  and  _494
REMARK  202  A    between atoms: _494  and  _495
REMARK  203  A    between atoms: _494  and  _497
REMARK  204  A    between atoms: _497  and  _498
REMARK  205  A    between atoms: _498  and  _499
REMARK  206  A    between atoms: _499  and  _500
REMARK  207  A    between atoms: _509  and  _511
REMARK  208  A    between atoms: _511  and  _512
REMARK  209  A    between atoms: _511  and  _514
REMARK  210  A    between atoms: _514  and  _515
REMARK                            x       y       z     vdW  Elec       q    Type
REMARK                         _______ _______ _______ _____ _____    ______ ____
ROOT
ATOM      1  O   HOH     1     -10.768   5.575  -2.641  0.00  0.00    +0.000 OA
ENDROOT
TORSDOF 0
REMARK  Name = ../refined-set-2016/4i8z/4i8z_pocket.pdb
REMARK  210 active torsions:
REMARK  status: ('A' for Active; 'I' for Inactive)
REMARK    1  A    between atoms: _1  and  _3
REMARK    2  A    between atoms: _3  and  _4
REMARK    3  A    between atoms: _3  and  _6
REMARK    4  A    between atoms: _6  and  _7
REMARK    5  A    between atoms: _7  and  _8
REMARK    6  A    between atoms: _8  and  _9
REMARK    7  A    between atoms: _18  and  _20
REMARK    8  A    between atoms: _20  and  _21
REMARK    9  A    between atoms: _20  and  _23
REMARK   10  A    between atoms: _23  and  _24
REMARK   11  A    between atoms: _27  and  _29
REMARK   12  A    between atoms: _29  and  _30
REMARK   13  A    between atoms: _29  and  _32
REMARK   14  A    between atoms: _32  and  _33
REMARK   15  A    between atoms: _36  and  _38
REMARK   16  A    between atoms: _38  and  _39
REMARK   17  A    between atoms: _38  and  _41
REMARK   18  A    between atoms: _41  and  _42
REMARK   19  A    between atoms: _45  and  _47
REMARK   20  A    between atoms: _47  and  _48
REMARK   21  A    between atoms: _47  and  _50
REMARK   22  A    between atoms: _50  and  _51
REMARK   23  A    between atoms: _54  and  _56
REMARK   24  A    between atoms: _56  and  _57
REMARK   25  A    between atoms: _59  and  _61
REMARK   26  A    between atoms: _61  and  _62
REMARK   27  A    between atoms: _65  and  _67
REMARK   28  A    between atoms: _67  and  _68
REMARK   29  A    between atoms: _67  and  _70
REMARK   30  A    between atoms: _70  and  _71
REMARK   31  A    between atoms: _74  and  _76
REMARK   32  A    between atoms: _76  and  _77
REMARK   33  A    between atoms: _76  and  _79
REMARK   34  A    between atoms: _79  and  _80
REMARK   35  A    between atoms: _83  and  _85
REMARK   36  A    between atoms: _85  and  _86
REMARK   37  A    between atoms: _85  and  _88
REMARK   38  A    between atoms: _88  and  _89
REMARK   39  A    between atoms: _92  and  _94
REMARK   40  A    between atoms: _94  and  _95
REMARK   41  A    between atoms: _94  and  _97
REMARK   42  A    between atoms: _100  and  _102
REMARK   43  A    between atoms: _102  and  _103
REMARK   44  A    between atoms: _102  and  _105
REMARK   45  A    between atoms: _105  and  _106
REMARK   46  A    between atoms: _106  and  _107
REMARK   47  A    between atoms: _107  and  _108
REMARK   48  A    between atoms: _108  and  _109
REMARK   49  A    between atoms: _113  and  _115
REMARK   50  A    between atoms: _115  and  _116
REMARK   51  A    between atoms: _115  and  _118
REMARK   52  A    between atoms: _118  and  _119
REMARK   53  A    between atoms: _119  and  _120
REMARK   54  A    between atoms: _122  and  _124
REMARK   55  A    between atoms: _124  and  _125
REMARK   56  A    between atoms: _124  and  _127
REMARK   57  A    between atoms: _127  and  _128
REMARK   58  A    between atoms: _131  and  _133
REMARK   59  A    between atoms: _133  and  _134
REMARK   60  A    between atoms: _136  and  _138
REMARK   61  A    between atoms: _138  and  _139
REMARK   62  A    between atoms: _141  and  _143
REMARK   63  A    between atoms: _143  and  _144
REMARK   64  A    between atoms: _143  and  _146
REMARK   65  A    between atoms: _146  and  _147
REMARK   66  A    between atoms: _150  and  _152
REMARK   67  A    between atoms: _152  and  _153
REMARK   68  A    between atoms: _155  and  _157
REMARK   69  A    between atoms: _157  and  _158
REMARK   70  A    between atoms: _160  and  _162
REMARK   71  A    between atoms: _162  and  _163
REMARK   72  A    between atoms: _162  and  _165
REMARK   73  A    between atoms: _165  and  _166
REMARK   74  A    between atoms: _169  and  _171
REMARK   75  A    between atoms: _171  and  _172
REMARK   76  A    between atoms: _171  and  _174
REMARK   77  A    between atoms: _177  and  _179
REMARK   78  A    between atoms: _179  and  _180
REMARK   79  A    between atoms: _179  and  _182
REMARK   80  A    between atoms: _182  and  _183
REMARK   81  A    between atoms: _187  and  _188
REMARK   82  A    between atoms: _193  and  _195
REMARK   83  A    between atoms: _195  and  _196
REMARK   84  A    between atoms: _195  and  _198
REMARK   85  A    between atoms: _198  and  _199
REMARK   86  A    between atoms: _203  and  _204
REMARK   87  A    between atoms: _209  and  _211
REMARK   88  A    between atoms: _211  and  _212
REMARK   89  A    between atoms: _211  and  _214
REMARK   90  A    between atoms: _217  and  _219
REMARK   91  A    between atoms: _219  and  _220
REMARK   92  A    between atoms: _219  and  _222
REMARK   93  A    between atoms: _222  and  _223
REMARK   94  A    between atoms: _228  and  _230
REMARK   95  A    between atoms: _230  and  _231
REMARK   96  A    between atoms: _230  and  _233
REMARK   97  A    between atoms: _233  and  _234
REMARK   98  A    between atoms: _237  and  _239
REMARK   99  A    between atoms: _239  and  _240
REMARK  100  A    between atoms: _239  and  _242
REMARK  101  A    between atoms: _242  and  _243
REMARK  102  A    between atoms: _246  and  _248
REMARK  103  A    between atoms: _248  and  _249
REMARK  104  A    between atoms: _251  and  _253
REMARK  105  A    between atoms: _253  and  _254
REMARK  106  A    between atoms: _253  and  _256
REMARK  107  A    between atoms: _256  and  _257
REMARK  108  A    between atoms: _257  and  _258
REMARK  109  A    between atoms: _258  and  _259
REMARK  110  A    between atoms: _268  and  _270
REMARK  111  A    between atoms: _270  and  _271
REMARK  112  A    between atoms: _270  and  _273
REMARK  113  A    between atoms: _273  and  _274
REMARK  114  A    between atoms: _279  and  _281
REMARK  115  A    between atoms: _281  and  _282
REMARK  116  A    between atoms: _281  and  _284
REMARK  117  A    between atoms: _284  and  _285
REMARK  118  A    between atoms: _285  and  _286
REMARK  119  A    between atoms: _286  and  _287
REMARK  120  A    between atoms: _296  and  _298
REMARK  121  A    between atoms: _298  and  _299
REMARK  122  A    between atoms: _298  and  _301
REMARK  123  A    between atoms: _301  and  _302
REMARK  124  A    between atoms: _305  and  _307
REMARK  125  A    between atoms: _307  and  _308
REMARK  126  A    between atoms: _307  and  _310
REMARK  127  A    between atoms: _310  and  _311
REMARK  128  A    between atoms: _314  and  _316
REMARK  129  A    between atoms: _316  and  _317
REMARK  130  A    between atoms: _316  and  _319
REMARK  131  A    between atoms: _319  and  _320
REMARK  132  A    between atoms: _323  and  _325
REMARK  133  A    between atoms: _325  and  _326
REMARK  134  A    between atoms: _325  and  _328
REMARK  135  A    between atoms: _328  and  _329
REMARK  136  A    between atoms: _332  and  _334
REMARK  137  A    between atoms: _334  and  _335
REMARK  138  A    between atoms: _337  and  _339
REMARK  139  A    between atoms: _339  and  _340
REMARK  140  A    between atoms: _343  and  _345
REMARK  141  A    between atoms: _345  and  _346
REMARK  142  A    between atoms: _345  and  _348
REMARK  143  A    between atoms: _348  and  _349
REMARK  144  A    between atoms: _352  and  _354
REMARK  145  A    between atoms: _354  and  _355
REMARK  146  A    between atoms: _354  and  _357
REMARK  147  A    between atoms: _357  and  _358
REMARK  148  A    between atoms: _361  and  _363
REMARK  149  A    between atoms: _363  and  _364
REMARK  150  A    between atoms: _363  and  _366
REMARK  151  A    between atoms: _366  and  _367
REMARK  152  A    between atoms: _370  and  _372
REMARK  153  A    between atoms: _372  and  _373
REMARK  154  A    between atoms: _372  and  _375
REMARK  155  A    between atoms: _378  and  _380
REMARK  156  A    between atoms: _380  and  _381
REMARK  157  A    between atoms: _380  and  _383
REMARK  158  A    between atoms: _383  and  _384
REMARK  159  A    between atoms: _387  and  _389
REMARK  160  A    between atoms: _389  and  _390
REMARK  161  A    between atoms: _392  and  _394
REMARK  162  A    between atoms: _394  and  _395
REMARK  163  A    between atoms: _397  and  _399
REMARK  164  A    between atoms: _399  and  _400
REMARK  165  A    between atoms: _399  and  _402
REMARK  166  A    between atoms: _402  and  _403
REMARK  167  A    between atoms: _406  and  _408
REMARK  168  A    between atoms: _408  and  _409
REMARK  169  A    between atoms: _411  and  _413
REMARK  170  A    between atoms: _413  and  _414
REMARK  171  A    between atoms: _416  and  _418
REMARK  172  A    between atoms: _418  and  _419
REMARK  173  A    between atoms: _418  and  _421
REMARK  174  A    between atoms: _421  and  _422
REMARK  175  A    between atoms: _425  and  _427
REMARK  176  A    between atoms: _427  and  _428
REMARK  177  A    between atoms: _427  and  _430
REMARK  178  A    between atoms: _430  and  _431
REMARK  179  A    between atoms: _434  and  _436
REMARK  180  A    between atoms: _436  and  _437
REMARK  181  A    between atoms: _436  and  _439
REMARK  182  A    between atoms: _439  and  _440
REMARK  183  A    between atoms: _444  and  _445
REMARK  184  A    between atoms: _450  and  _452
REMARK  185  A    between atoms: _452  and  _453
REMARK  186  A    between atoms: _452  and  _455
REMARK  187  A    between atoms: _458  and  _460
REMARK  188  A    between atoms: _460  and  _461
REMARK  189  A    between atoms: _460  and  _463
REMARK  190  A    between atoms: _463  and  _464
REMARK  191  A    between atoms: _469  and  _471
REMARK  192  A    between atoms: _471  and  _472
REMARK  193  A    between atoms: _471  and  _474
REMARK  194  A    between atoms: _474  and  _475
REMARK  195  A    between atoms: _478  and  _480
REMARK  196  A    between atoms: _480  and  _481
REMARK  197  A    between atoms: _480  and  _483
REMARK  198  A    between atoms: _483  and  _484
REMARK  199  A    between atoms: _487  and  _489
REMARK  200  A    between atoms: _489  and  _490
REMARK  201  A    between atoms: _492  and  _494
REMARK  202  A    between atoms: _494  and  _495
REMARK  203  A    between atoms: _494  and  _497
REMARK  204  A    between atoms: _497  and  _498
REMARK  205  A    between atoms: _498  and  _499
REMARK  206  A    between atoms: _499  and  _500
REMARK  207  A    between atoms: _509  and  _511
REMARK  208  A    between atoms: _511  and  _512
REMARK  209  A    between atoms: _511  and  _514
REMARK  210  A    between atoms: _514  and  _515
REMARK                            x       y       z     vdW  Elec       q    Type
REMARK                         _______ _______ _______ _____ _____    ______ ____
ROOT
ATOM      1  O   HOH     1     -20.512  -7.905   3.254  0.00  0.00    +0.000 OA
ENDROOT
TORSDOF 0
REMARK  Name = ../refined-set-2016/4i8z/4i8z_pocket.pdb
REMARK  210 active torsions:
REMARK  status: ('A' for Active; 'I' for Inactive)
REMARK    1  A    between atoms: _1  and  _3
REMARK    2  A    between atoms: _3  and  _4
REMARK    3  A    between atoms: _3  and  _6
REMARK    4  A    between atoms: _6  and  _7
REMARK    5  A    between atoms: _7  and  _8
REMARK    6  A    between atoms: _8  and  _9
REMARK    7  A    between atoms: _18  and  _20
REMARK    8  A    between atoms: _20  and  _21
REMARK    9  A    between atoms: _20  and  _23
REMARK   10  A    between atoms: _23  and  _24
REMARK   11  A    between atoms: _27  and  _29
REMARK   12  A    between atoms: _29  and  _30
REMARK   13  A    between atoms: _29  and  _32
REMARK   14  A    between atoms: _32  and  _33
REMARK   15  A    between atoms: _36  and  _38
REMARK   16  A    between atoms: _38  and  _39
REMARK   17  A    between atoms: _38  and  _41
REMARK   18  A    between atoms: _41  and  _42
REMARK   19  A    between atoms: _45  and  _47
REMARK   20  A    between atoms: _47  and  _48
REMARK   21  A    between atoms: _47  and  _50
REMARK   22  A    between atoms: _50  and  _51
REMARK   23  A    between atoms: _54  and  _56
REMARK   24  A    between atoms: _56  and  _57
REMARK   25  A    between atoms: _59  and  _61
REMARK   26  A    between atoms: _61  and  _62
REMARK   27  A    between atoms: _65  and  _67
REMARK   28  A    between atoms: _67  and  _68
REMARK   29  A    between atoms: _67  and  _70
REMARK   30  A    between atoms: _70  and  _71
REMARK   31  A    between atoms: _74  and  _76
REMARK   32  A    between atoms: _76  and  _77
REMARK   33  A    between atoms: _76  and  _79
REMARK   34  A    between atoms: _79  and  _80
REMARK   35  A    between atoms: _83  and  _85
REMARK   36  A    between atoms: _85  and  _86
REMARK   37  A    between atoms: _85  and  _88
REMARK   38  A    between atoms: _88  and  _89
REMARK   39  A    between atoms: _92  and  _94
REMARK   40  A    between atoms: _94  and  _95
REMARK   41  A    between atoms: _94  and  _97
REMARK   42  A    between atoms: _100  and  _102
REMARK   43  A    between atoms: _102  and  _103
REMARK   44  A    between atoms: _102  and  _105
REMARK   45  A    between atoms: _105  and  _106
REMARK   46  A    between atoms: _106  and  _107
REMARK   47  A    between atoms: _107  and  _108
REMARK   48  A    between atoms: _108  and  _109
REMARK   49  A    between atoms: _113  and  _115
REMARK   50  A    between atoms: _115  and  _116
REMARK   51  A    between atoms: _115  and  _118
REMARK   52  A    between atoms: _118  and  _119
REMARK   53  A    between atoms: _119  and  _120
REMARK   54  A    between atoms: _122  and  _124
REMARK   55  A    between atoms: _124  and  _125
REMARK   56  A    between atoms: _124  and  _127
REMARK   57  A    between atoms: _127  and  _128
REMARK   58  A    between atoms: _131  and  _133
REMARK   59  A    between atoms: _133  and  _134
REMARK   60  A    between atoms: _136  and  _138
REMARK   61  A    between atoms: _138  and  _139
REMARK   62  A    between atoms: _141  and  _143
REMARK   63  A    between atoms: _143  and  _144
REMARK   64  A    between atoms: _143  and  _146
REMARK   65  A    between atoms: _146  and  _147
REMARK   66  A    between atoms: _150  and  _152
REMARK   67  A    between atoms: _152  and  _153
REMARK   68  A    between atoms: _155  and  _157
REMARK   69  A    between atoms: _157  and  _158
REMARK   70  A    between atoms: _160  and  _162
REMARK   71  A    between atoms: _162  and  _163
REMARK   72  A    between atoms: _162  and  _165
REMARK   73  A    between atoms: _165  and  _166
REMARK   74  A    between atoms: _169  and  _171
REMARK   75  A    between atoms: _171  and  _172
REMARK   76  A    between atoms: _171  and  _174
REMARK   77  A    between atoms: _177  and  _179
REMARK   78  A    between atoms: _179  and  _180
REMARK   79  A    between atoms: _179  and  _182
REMARK   80  A    between atoms: _182  and  _183
REMARK   81  A    between atoms: _187  and  _188
REMARK   82  A    between atoms: _193  and  _195
REMARK   83  A    between atoms: _195  and  _196
REMARK   84  A    between atoms: _195  and  _198
REMARK   85  A    between atoms: _198  and  _199
REMARK   86  A    between atoms: _203  and  _204
REMARK   87  A    between atoms: _209  and  _211
REMARK   88  A    between atoms: _211  and  _212
REMARK   89  A    between atoms: _211  and  _214
REMARK   90  A    between atoms: _217  and  _219
REMARK   91  A    between atoms: _219  and  _220
REMARK   92  A    between atoms: _219  and  _222
REMARK   93  A    between atoms: _222  and  _223
REMARK   94  A    between atoms: _228  and  _230
REMARK   95  A    between atoms: _230  and  _231
REMARK   96  A    between atoms: _230  and  _233
REMARK   97  A    between atoms: _233  and  _234
REMARK   98  A    between atoms: _237  and  _239
REMARK   99  A    between atoms: _239  and  _240
REMARK  100  A    between atoms: _239  and  _242
REMARK  101  A    between atoms: _242  and  _243
REMARK  102  A    between atoms: _246  and  _248
REMARK  103  A    between atoms: _248  and  _249
REMARK  104  A    between atoms: _251  and  _253
REMARK  105  A    between atoms: _253  and  _254
REMARK  106  A    between atoms: _253  and  _256
REMARK  107  A    between atoms: _256  and  _257
REMARK  108  A    between atoms: _257  and  _258
REMARK  109  A    between atoms: _258  and  _259
REMARK  110  A    between atoms: _268  and  _270
REMARK  111  A    between atoms: _270  and  _271
REMARK  112  A    between atoms: _270  and  _273
REMARK  113  A    between atoms: _273  and  _274
REMARK  114  A    between atoms: _279  and  _281
REMARK  115  A    between atoms: _281  and  _282
REMARK  116  A    between atoms: _281  and  _284
REMARK  117  A    between atoms: _284  and  _285
REMARK  118  A    between atoms: _285  and  _286
REMARK  119  A    between atoms: _286  and  _287
REMARK  120  A    between atoms: _296  and  _298
REMARK  121  A    between atoms: _298  and  _299
REMARK  122  A    between atoms: _298  and  _301
REMARK  123  A    between atoms: _301  and  _302
REMARK  124  A    between atoms: _305  and  _307
REMARK  125  A    between atoms: _307  and  _308
REMARK  126  A    between atoms: _307  and  _310
REMARK  127  A    between atoms: _310  and  _311
REMARK  128  A    between atoms: _314  and  _316
REMARK  129  A    between atoms: _316  and  _317
REMARK  130  A    between atoms: _316  and  _319
REMARK  131  A    between atoms: _319  and  _320
REMARK  132  A    between atoms: _323  and  _325
REMARK  133  A    between atoms: _325  and  _326
REMARK  134  A    between atoms: _325  and  _328
REMARK  135  A    between atoms: _328  and  _329
REMARK  136  A    between atoms: _332  and  _334
REMARK  137  A    between atoms: _334  and  _335
REMARK  138  A    between atoms: _337  and  _339
REMARK  139  A    between atoms: _339  and  _340
REMARK  140  A    between atoms: _343  and  _345
REMARK  141  A    between atoms: _345  and  _346
REMARK  142  A    between atoms: _345  and  _348
REMARK  143  A    between atoms: _348  and  _349
REMARK  144  A    between atoms: _352  and  _354
REMARK  145  A    between atoms: _354  and  _355
REMARK  146  A    between atoms: _354  and  _357
REMARK  147  A    between atoms: _357  and  _358
REMARK  148  A    between atoms: _361  and  _363
REMARK  149  A    between atoms: _363  and  _364
REMARK  150  A    between atoms: _363  and  _366
REMARK  151  A    between atoms: _366  and  _367
REMARK  152  A    between atoms: _370  and  _372
REMARK  153  A    between atoms: _372  and  _373
REMARK  154  A    between atoms: _372  and  _375
REMARK  155  A    between atoms: _378  and  _380
REMARK  156  A    between atoms: _380  and  _381
REMARK  157  A    between atoms: _380  and  _383
REMARK  158  A    between atoms: _383  and  _384
REMARK  159  A    between atoms: _387  and  _389
REMARK  160  A    between atoms: _389  and  _390
REMARK  161  A    between atoms: _392  and  _394
REMARK  162  A    between atoms: _394  and  _395
REMARK  163  A    between atoms: _397  and  _399
REMARK  164  A    between atoms: _399  and  _400
REMARK  165  A    between atoms: _399  and  _402
REMARK  166  A    between atoms: _402  and  _403
REMARK  167  A    between atoms: _406  and  _408
REMARK  168  A    between atoms: _408  and  _409
REMARK  169  A    between atoms: _411  and  _413
REMARK  170  A    between atoms: _413  and  _414
REMARK  171  A    between atoms: _416  and  _418
REMARK  172  A    between atoms: _418  and  _419
REMARK  173  A    between atoms: _418  and  _421
REMARK  174  A    between atoms: _421  and  _422
REMARK  175  A    between atoms: _425  and  _427
REMARK  176  A    between atoms: _427  and  _428
REMARK  177  A    between atoms: _427  and  _430
REMARK  178  A    between atoms: _430  and  _431
REMARK  179  A    between atoms: _434  and  _436
REMARK  180  A    between atoms: _436  and  _437
REMARK  181  A    between atoms: _436  and  _439
REMARK  182  A    between atoms: _439  and  _440
REMARK  183  A    between atoms: _444  and  _445
REMARK  184  A    between atoms: _450  and  _452
REMARK  185  A    between atoms: _452  and  _453
REMARK  186  A    between atoms: _452  and  _455
REMARK  187  A    between atoms: _458  and  _460
REMARK  188  A    between atoms: _460  and  _461
REMARK  189  A    between atoms: _460  and  _463
REMARK  190  A    between atoms: _463  and  _464
REMARK  191  A    between atoms: _469  and  _471
REMARK  192  A    between atoms: _471  and  _472
REMARK  193  A    between atoms: _471  and  _474
REMARK  194  A    between atoms: _474  and  _475
REMARK  195  A    between atoms: _478  and  _480
REMARK  196  A    between atoms: _480  and  _481
REMARK  197  A    between atoms: _480  and  _483
REMARK  198  A    between atoms: _483  and  _484
REMARK  199  A    between atoms: _487  and  _489
REMARK  200  A    between atoms: _489  and  _490
REMARK  201  A    between atoms: _492  and  _494
REMARK  202  A    between atoms: _494  and  _495
REMARK  203  A    between atoms: _494  and  _497
REMARK  204  A    between atoms: _497  and  _498
REMARK  205  A    between atoms: _498  and  _499
REMARK  206  A    between atoms: _499  and  _500
REMARK  207  A    between atoms: _509  and  _511
REMARK  208  A    between atoms: _511  and  _512
REMARK  209  A    between atoms: _511  and  _514
REMARK  210  A    between atoms: _514  and  _515
REMARK                            x       y       z     vdW  Elec       q    Type
REMARK                         _______ _______ _______ _____ _____    ______ ____
ROOT
ATOM      1  O   HOH     1      -9.630   5.434   1.792  0.00  0.00    +0.000 OA
ENDROOT
TORSDOF 0
REMARK  Name = ../refined-set-2016/4i8z/4i8z_pocket.pdb
REMARK  210 active torsions:
REMARK  status: ('A' for Active; 'I' for Inactive)
REMARK    1  A    between atoms: _1  and  _3
REMARK    2  A    between atoms: _3  and  _4
REMARK    3  A    between atoms: _3  and  _6
REMARK    4  A    between atoms: _6  and  _7
REMARK    5  A    between atoms: _7  and  _8
REMARK    6  A    between atoms: _8  and  _9
REMARK    7  A    between atoms: _18  and  _20
REMARK    8  A    between atoms: _20  and  _21
REMARK    9  A    between atoms: _20  and  _23
REMARK   10  A    between atoms: _23  and  _24
REMARK   11  A    between atoms: _27  and  _29
REMARK   12  A    between atoms: _29  and  _30
REMARK   13  A    between atoms: _29  and  _32
REMARK   14  A    between atoms: _32  and  _33
REMARK   15  A    between atoms: _36  and  _38
REMARK   16  A    between atoms: _38  and  _39
REMARK   17  A    between atoms: _38  and  _41
REMARK   18  A    between atoms: _41  and  _42
REMARK   19  A    between atoms: _45  and  _47
REMARK   20  A    between atoms: _47  and  _48
REMARK   21  A    between atoms: _47  and  _50
REMARK   22  A    between atoms: _50  and  _51
REMARK   23  A    between atoms: _54  and  _56
REMARK   24  A    between atoms: _56  and  _57
REMARK   25  A    between atoms: _59  and  _61
REMARK   26  A    between atoms: _61  and  _62
REMARK   27  A    between atoms: _65  and  _67
REMARK   28  A    between atoms: _67  and  _68
REMARK   29  A    between atoms: _67  and  _70
REMARK   30  A    between atoms: _70  and  _71
REMARK   31  A    between atoms: _74  and  _76
REMARK   32  A    between atoms: _76  and  _77
REMARK   33  A    between atoms: _76  and  _79
REMARK   34  A    between atoms: _79  and  _80
REMARK   35  A    between atoms: _83  and  _85
REMARK   36  A    between atoms: _85  and  _86
REMARK   37  A    between atoms: _85  and  _88
REMARK   38  A    between atoms: _88  and  _89
REMARK   39  A    between atoms: _92  and  _94
REMARK   40  A    between atoms: _94  and  _95
REMARK   41  A    between atoms: _94  and  _97
REMARK   42  A    between atoms: _100  and  _102
REMARK   43  A    between atoms: _102  and  _103
REMARK   44  A    between atoms: _102  and  _105
REMARK   45  A    between atoms: _105  and  _106
REMARK   46  A    between atoms: _106  and  _107
REMARK   47  A    between atoms: _107  and  _108
REMARK   48  A    between atoms: _108  and  _109
REMARK   49  A    between atoms: _113  and  _115
REMARK   50  A    between atoms: _115  and  _116
REMARK   51  A    between atoms: _115  and  _118
REMARK   52  A    between atoms: _118  and  _119
REMARK   53  A    between atoms: _119  and  _120
REMARK   54  A    between atoms: _122  and  _124
REMARK   55  A    between atoms: _124  and  _125
REMARK   56  A    between atoms: _124  and  _127
REMARK   57  A    between atoms: _127  and  _128
REMARK   58  A    between atoms: _131  and  _133
REMARK   59  A    between atoms: _133  and  _134
REMARK   60  A    between atoms: _136  and  _138
REMARK   61  A    between atoms: _138  and  _139
REMARK   62  A    between atoms: _141  and  _143
REMARK   63  A    between atoms: _143  and  _144
REMARK   64  A    between atoms: _143  and  _146
REMARK   65  A    between atoms: _146  and  _147
REMARK   66  A    between atoms: _150  and  _152
REMARK   67  A    between atoms: _152  and  _153
REMARK   68  A    between atoms: _155  and  _157
REMARK   69  A    between atoms: _157  and  _158
REMARK   70  A    between atoms: _160  and  _162
REMARK   71  A    between atoms: _162  and  _163
REMARK   72  A    between atoms: _162  and  _165
REMARK   73  A    between atoms: _165  and  _166
REMARK   74  A    between atoms: _169  and  _171
REMARK   75  A    between atoms: _171  and  _172
REMARK   76  A    between atoms: _171  and  _174
REMARK   77  A    between atoms: _177  and  _179
REMARK   78  A    between atoms: _179  and  _180
REMARK   79  A    between atoms: _179  and  _182
REMARK   80  A    between atoms: _182  and  _183
REMARK   81  A    between atoms: _187  and  _188
REMARK   82  A    between atoms: _193  and  _195
REMARK   83  A    between atoms: _195  and  _196
REMARK   84  A    between atoms: _195  and  _198
REMARK   85  A    between atoms: _198  and  _199
REMARK   86  A    between atoms: _203  and  _204
REMARK   87  A    between atoms: _209  and  _211
REMARK   88  A    between atoms: _211  and  _212
REMARK   89  A    between atoms: _211  and  _214
REMARK   90  A    between atoms: _217  and  _219
REMARK   91  A    between atoms: _219  and  _220
REMARK   92  A    between atoms: _219  and  _222
REMARK   93  A    between atoms: _222  and  _223
REMARK   94  A    between atoms: _228  and  _230
REMARK   95  A    between atoms: _230  and  _231
REMARK   96  A    between atoms: _230  and  _233
REMARK   97  A    between atoms: _233  and  _234
REMARK   98  A    between atoms: _237  and  _239
REMARK   99  A    between atoms: _239  and  _240
REMARK  100  A    between atoms: _239  and  _242
REMARK  101  A    between atoms: _242  and  _243
REMARK  102  A    between atoms: _246  and  _248
REMARK  103  A    between atoms: _248  and  _249
REMARK  104  A    between atoms: _251  and  _253
REMARK  105  A    between atoms: _253  and  _254
REMARK  106  A    between atoms: _253  and  _256
REMARK  107  A    between atoms: _256  and  _257
REMARK  108  A    between atoms: _257  and  _258
REMARK  109  A    between atoms: _258  and  _259
REMARK  110  A    between atoms: _268  and  _270
REMARK  111  A    between atoms: _270  and  _271
REMARK  112  A    between atoms: _270  and  _273
REMARK  113  A    between atoms: _273  and  _274
REMARK  114  A    between atoms: _279  and  _281
REMARK  115  A    between atoms: _281  and  _282
REMARK  116  A    between atoms: _281  and  _284
REMARK  117  A    between atoms: _284  and  _285
REMARK  118  A    between atoms: _285  and  _286
REMARK  119  A    between atoms: _286  and  _287
REMARK  120  A    between atoms: _296  and  _298
REMARK  121  A    between atoms: _298  and  _299
REMARK  122  A    between atoms: _298  and  _301
REMARK  123  A    between atoms: _301  and  _302
REMARK  124  A    between atoms: _305  and  _307
REMARK  125  A    between atoms: _307  and  _308
REMARK  126  A    between atoms: _307  and  _310
REMARK  127  A    between atoms: _310  and  _311
REMARK  128  A    between atoms: _314  and  _316
REMARK  129  A    between atoms: _316  and  _317
REMARK  130  A    between atoms: _316  and  _319
REMARK  131  A    between atoms: _319  and  _320
REMARK  132  A    between atoms: _323  and  _325
REMARK  133  A    between atoms: _325  and  _326
REMARK  134  A    between atoms: _325  and  _328
REMARK  135  A    between atoms: _328  and  _329
REMARK  136  A    between atoms: _332  and  _334
REMARK  137  A    between atoms: _334  and  _335
REMARK  138  A    between atoms: _337  and  _339
REMARK  139  A    between atoms: _339  and  _340
REMARK  140  A    between atoms: _343  and  _345
REMARK  141  A    between atoms: _345  and  _346
REMARK  142  A    between atoms: _345  and  _348
REMARK  143  A    between atoms: _348  and  _349
REMARK  144  A    between atoms: _352  and  _354
REMARK  145  A    between atoms: _354  and  _355
REMARK  146  A    between atoms: _354  and  _357
REMARK  147  A    between atoms: _357  and  _358
REMARK  148  A    between atoms: _361  and  _363
REMARK  149  A    between atoms: _363  and  _364
REMARK  150  A    between atoms: _363  and  _366
REMARK  151  A    between atoms: _366  and  _367
REMARK  152  A    between atoms: _370  and  _372
REMARK  153  A    between atoms: _372  and  _373
REMARK  154  A    between atoms: _372  and  _375
REMARK  155  A    between atoms: _378  and  _380
REMARK  156  A    between atoms: _380  and  _381
REMARK  157  A    between atoms: _380  and  _383
REMARK  158  A    between atoms: _383  and  _384
REMARK  159  A    between atoms: _387  and  _389
REMARK  160  A    between atoms: _389  and  _390
REMARK  161  A    between atoms: _392  and  _394
REMARK  162  A    between atoms: _394  and  _395
REMARK  163  A    between atoms: _397  and  _399
REMARK  164  A    between atoms: _399  and  _400
REMARK  165  A    between atoms: _399  and  _402
REMARK  166  A    between atoms: _402  and  _403
REMARK  167  A    between atoms: _406  and  _408
REMARK  168  A    between atoms: _408  and  _409
REMARK  169  A    between atoms: _411  and  _413
REMARK  170  A    between atoms: _413  and  _414
REMARK  171  A    between atoms: _416  and  _418
REMARK  172  A    between atoms: _418  and  _419
REMARK  173  A    between atoms: _418  and  _421
REMARK  174  A    between atoms: _421  and  _422
REMARK  175  A    between atoms: _425  and  _427
REMARK  176  A    between atoms: _427  and  _428
REMARK  177  A    between atoms: _427  and  _430
REMARK  178  A    between atoms: _430  and  _431
REMARK  179  A    between atoms: _434  and  _436
REMARK  180  A    between atoms: _436  and  _437
REMARK  181  A    between atoms: _436  and  _439
REMARK  182  A    between atoms: _439  and  _440
REMARK  183  A    between atoms: _444  and  _445
REMARK  184  A    between atoms: _450  and  _452
REMARK  185  A    between atoms: _452  and  _453
REMARK  186  A    between atoms: _452  and  _455
REMARK  187  A    between atoms: _458  and  _460
REMARK  188  A    between atoms: _460  and  _461
REMARK  189  A    between atoms: _460  and  _463
REMARK  190  A    between atoms: _463  and  _464
REMARK  191  A    between atoms: _469  and  _471
REMARK  192  A    between atoms: _471  and  _472
REMARK  193  A    between atoms: _471  and  _474
REMARK  194  A    between atoms: _474  and  _475
REMARK  195  A    between atoms: _478  and  _480
REMARK  196  A    between atoms: _480  and  _481
REMARK  197  A    between atoms: _480  and  _483
REMARK  198  A    between atoms: _483  and  _484
REMARK  199  A    between atoms: _487  and  _489
REMARK  200  A    between atoms: _489  and  _490
REMARK  201  A    between atoms: _492  and  _494
REMARK  202  A    between atoms: _494  and  _495
REMARK  203  A    between atoms: _494  and  _497
REMARK  204  A    between atoms: _497  and  _498
REMARK  205  A    between atoms: _498  and  _499
REMARK  206  A    between atoms: _499  and  _500
REMARK  207  A    between atoms: _509  and  _511
REMARK  208  A    between atoms: _511  and  _512
REMARK  209  A    between atoms: _511  and  _514
REMARK  210  A    between atoms: _514  and  _515
REMARK                            x       y       z     vdW  Elec       q    Type
REMARK                         _______ _______ _______ _____ _____    ______ ____
ROOT
ATOM      1  O   HOH     1     -23.007   6.620 -11.903  0.00  0.00    +0.000 OA
ENDROOT
TORSDOF 0
REMARK  Name = ../refined-set-2016/4i8z/4i8z_pocket.pdb
REMARK  210 active torsions:
REMARK  status: ('A' for Active; 'I' for Inactive)
REMARK    1  A    between atoms: _1  and  _3
REMARK    2  A    between atoms: _3  and  _4
REMARK    3  A    between atoms: _3  and  _6
REMARK    4  A    between atoms: _6  and  _7
REMARK    5  A    between atoms: _7  and  _8
REMARK    6  A    between atoms: _8  and  _9
REMARK    7  A    between atoms: _18  and  _20
REMARK    8  A    between atoms: _20  and  _21
REMARK    9  A    between atoms: _20  and  _23
REMARK   10  A    between atoms: _23  and  _24
REMARK   11  A    between atoms: _27  and  _29
REMARK   12  A    between atoms: _29  and  _30
REMARK   13  A    between atoms: _29  and  _32
REMARK   14  A    between atoms: _32  and  _33
REMARK   15  A    between atoms: _36  and  _38
REMARK   16  A    between atoms: _38  and  _39
REMARK   17  A    between atoms: _38  and  _41
REMARK   18  A    between atoms: _41  and  _42
REMARK   19  A    between atoms: _45  and  _47
REMARK   20  A    between atoms: _47  and  _48
REMARK   21  A    between atoms: _47  and  _50
REMARK   22  A    between atoms: _50  and  _51
REMARK   23  A    between atoms: _54  and  _56
REMARK   24  A    between atoms: _56  and  _57
REMARK   25  A    between atoms: _59  and  _61
REMARK   26  A    between atoms: _61  and  _62
REMARK   27  A    between atoms: _65  and  _67
REMARK   28  A    between atoms: _67  and  _68
REMARK   29  A    between atoms: _67  and  _70
REMARK   30  A    between atoms: _70  and  _71
REMARK   31  A    between atoms: _74  and  _76
REMARK   32  A    between atoms: _76  and  _77
REMARK   33  A    between atoms: _76  and  _79
REMARK   34  A    between atoms: _79  and  _80
REMARK   35  A    between atoms: _83  and  _85
REMARK   36  A    between atoms: _85  and  _86
REMARK   37  A    between atoms: _85  and  _88
REMARK   38  A    between atoms: _88  and  _89
REMARK   39  A    between atoms: _92  and  _94
REMARK   40  A    between atoms: _94  and  _95
REMARK   41  A    between atoms: _94  and  _97
REMARK   42  A    between atoms: _100  and  _102
REMARK   43  A    between atoms: _102  and  _103
REMARK   44  A    between atoms: _102  and  _105
REMARK   45  A    between atoms: _105  and  _106
REMARK   46  A    between atoms: _106  and  _107
REMARK   47  A    between atoms: _107  and  _108
REMARK   48  A    between atoms: _108  and  _109
REMARK   49  A    between atoms: _113  and  _115
REMARK   50  A    between atoms: _115  and  _116
REMARK   51  A    between atoms: _115  and  _118
REMARK   52  A    between atoms: _118  and  _119
REMARK   53  A    between atoms: _119  and  _120
REMARK   54  A    between atoms: _122  and  _124
REMARK   55  A    between atoms: _124  and  _125
REMARK   56  A    between atoms: _124  and  _127
REMARK   57  A    between atoms: _127  and  _128
REMARK   58  A    between atoms: _131  and  _133
REMARK   59  A    between atoms: _133  and  _134
REMARK   60  A    between atoms: _136  and  _138
REMARK   61  A    between atoms: _138  and  _139
REMARK   62  A    between atoms: _141  and  _143
REMARK   63  A    between atoms: _143  and  _144
REMARK   64  A    between atoms: _143  and  _146
REMARK   65  A    between atoms: _146  and  _147
REMARK   66  A    between atoms: _150  and  _152
REMARK   67  A    between atoms: _152  and  _153
REMARK   68  A    between atoms: _155  and  _157
REMARK   69  A    between atoms: _157  and  _158
REMARK   70  A    between atoms: _160  and  _162
REMARK   71  A    between atoms: _162  and  _163
REMARK   72  A    between atoms: _162  and  _165
REMARK   73  A    between atoms: _165  and  _166
REMARK   74  A    between atoms: _169  and  _171
REMARK   75  A    between atoms: _171  and  _172
REMARK   76  A    between atoms: _171  and  _174
REMARK   77  A    between atoms: _177  and  _179
REMARK   78  A    between atoms: _179  and  _180
REMARK   79  A    between atoms: _179  and  _182
REMARK   80  A    between atoms: _182  and  _183
REMARK   81  A    between atoms: _187  and  _188
REMARK   82  A    between atoms: _193  and  _195
REMARK   83  A    between atoms: _195  and  _196
REMARK   84  A    between atoms: _195  and  _198
REMARK   85  A    between atoms: _198  and  _199
REMARK   86  A    between atoms: _203  and  _204
REMARK   87  A    between atoms: _209  and  _211
REMARK   88  A    between atoms: _211  and  _212
REMARK   89  A    between atoms: _211  and  _214
REMARK   90  A    between atoms: _217  and  _219
REMARK   91  A    between atoms: _219  and  _220
REMARK   92  A    between atoms: _219  and  _222
REMARK   93  A    between atoms: _222  and  _223
REMARK   94  A    between atoms: _228  and  _230
REMARK   95  A    between atoms: _230  and  _231
REMARK   96  A    between atoms: _230  and  _233
REMARK   97  A    between atoms: _233  and  _234
REMARK   98  A    between atoms: _237  and  _239
REMARK   99  A    between atoms: _239  and  _240
REMARK  100  A    between atoms: _239  and  _242
REMARK  101  A    between atoms: _242  and  _243
REMARK  102  A    between atoms: _246  and  _248
REMARK  103  A    between atoms: _248  and  _249
REMARK  104  A    between atoms: _251  and  _253
REMARK  105  A    between atoms: _253  and  _254
REMARK  106  A    between atoms: _253  and  _256
REMARK  107  A    between atoms: _256  and  _257
REMARK  108  A    between atoms: _257  and  _258
REMARK  109  A    between atoms: _258  and  _259
REMARK  110  A    between atoms: _268  and  _270
REMARK  111  A    between atoms: _270  and  _271
REMARK  112  A    between atoms: _270  and  _273
REMARK  113  A    between atoms: _273  and  _274
REMARK  114  A    between atoms: _279  and  _281
REMARK  115  A    between atoms: _281  and  _282
REMARK  116  A    between atoms: _281  and  _284
REMARK  117  A    between atoms: _284  and  _285
REMARK  118  A    between atoms: _285  and  _286
REMARK  119  A    between atoms: _286  and  _287
REMARK  120  A    between atoms: _296  and  _298
REMARK  121  A    between atoms: _298  and  _299
REMARK  122  A    between atoms: _298  and  _301
REMARK  123  A    between atoms: _301  and  _302
REMARK  124  A    between atoms: _305  and  _307
REMARK  125  A    between atoms: _307  and  _308
REMARK  126  A    between atoms: _307  and  _310
REMARK  127  A    between atoms: _310  and  _311
REMARK  128  A    between atoms: _314  and  _316
REMARK  129  A    between atoms: _316  and  _317
REMARK  130  A    between atoms: _316  and  _319
REMARK  131  A    between atoms: _319  and  _320
REMARK  132  A    between atoms: _323  and  _325
REMARK  133  A    between atoms: _325  and  _326
REMARK  134  A    between atoms: _325  and  _328
REMARK  135  A    between atoms: _328  and  _329
REMARK  136  A    between atoms: _332  and  _334
REMARK  137  A    between atoms: _334  and  _335
REMARK  138  A    between atoms: _337  and  _339
REMARK  139  A    between atoms: _339  and  _340
REMARK  140  A    between atoms: _343  and  _345
REMARK  141  A    between atoms: _345  and  _346
REMARK  142  A    between atoms: _345  and  _348
REMARK  143  A    between atoms: _348  and  _349
REMARK  144  A    between atoms: _352  and  _354
REMARK  145  A    between atoms: _354  and  _355
REMARK  146  A    between atoms: _354  and  _357
REMARK  147  A    between atoms: _357  and  _358
REMARK  148  A    between atoms: _361  and  _363
REMARK  149  A    between atoms: _363  and  _364
REMARK  150  A    between atoms: _363  and  _366
REMARK  151  A    between atoms: _366  and  _367
REMARK  152  A    between atoms: _370  and  _372
REMARK  153  A    between atoms: _372  and  _373
REMARK  154  A    between atoms: _372  and  _375
REMARK  155  A    between atoms: _378  and  _380
REMARK  156  A    between atoms: _380  and  _381
REMARK  157  A    between atoms: _380  and  _383
REMARK  158  A    between atoms: _383  and  _384
REMARK  159  A    between atoms: _387  and  _389
REMARK  160  A    between atoms: _389  and  _390
REMARK  161  A    between atoms: _392  and  _394
REMARK  162  A    between atoms: _394  and  _395
REMARK  163  A    between atoms: _397  and  _399
REMARK  164  A    between atoms: _399  and  _400
REMARK  165  A    between atoms: _399  and  _402
REMARK  166  A    between atoms: _402  and  _403
REMARK  167  A    between atoms: _406  and  _408
REMARK  168  A    between atoms: _408  and  _409
REMARK  169  A    between atoms: _411  and  _413
REMARK  170  A    between atoms: _413  and  _414
REMARK  171  A    between atoms: _416  and  _418
REMARK  172  A    between atoms: _418  and  _419
REMARK  173  A    between atoms: _418  and  _421
REMARK  174  A    between atoms: _421  and  _422
REMARK  175  A    between atoms: _425  and  _427
REMARK  176  A    between atoms: _427  and  _428
REMARK  177  A    between atoms: _427  and  _430
REMARK  178  A    between atoms: _430  and  _431
REMARK  179  A    between atoms: _434  and  _436
REMARK  180  A    between atoms: _436  and  _437
REMARK  181  A    between atoms: _436  and  _439
REMARK  182  A    between atoms: _439  and  _440
REMARK  183  A    between atoms: _444  and  _445
REMARK  184  A    between atoms: _450  and  _452
REMARK  185  A    between atoms: _452  and  _453
REMARK  186  A    between atoms: _452  and  _455
REMARK  187  A    between atoms: _458  and  _460
REMARK  188  A    between atoms: _460  and  _461
REMARK  189  A    between atoms: _460  and  _463
REMARK  190  A    between atoms: _463  and  _464
REMARK  191  A    between atoms: _469  and  _471
REMARK  192  A    between atoms: _471  and  _472
REMARK  193  A    between atoms: _471  and  _474
REMARK  194  A    between atoms: _474  and  _475
REMARK  195  A    between atoms: _478  and  _480
REMARK  196  A    between atoms: _480  and  _481
REMARK  197  A    between atoms: _480  and  _483
REMARK  198  A    between atoms: _483  and  _484
REMARK  199  A    between atoms: _487  and  _489
REMARK  200  A    between atoms: _489  and  _490
REMARK  201  A    between atoms: _492  and  _494
REMARK  202  A    between atoms: _494  and  _495
REMARK  203  A    between atoms: _494  and  _497
REMARK  204  A    between atoms: _497  and  _498
REMARK  205  A    between atoms: _498  and  _499
REMARK  206  A    between atoms: _499  and  _500
REMARK  207  A    between atoms: _509  and  _511
REMARK  208  A    between atoms: _511  and  _512
REMARK  209  A    between atoms: _511  and  _514
REMARK  210  A    between atoms: _514  and  _515
REMARK                            x       y       z     vdW  Elec       q    Type
REMARK                         _______ _______ _______ _____ _____    ______ ____
ROOT
ATOM      1  O   HOH     1     -13.037   6.747  -4.367  0.00  0.00    +0.000 OA
ENDROOT
TORSDOF 0
