REMARK  Name = ../refined-set-2016/3gxy/3gxy_pocket.pdb
REMARK  115 active torsions:
REMARK  status: ('A' for Active; 'I' for Inactive)
REMARK    1  A    between atoms: _1  and  _5
REMARK    2  A    between atoms: _5  and  _6
REMARK    3  A    between atoms: _5  and  _8
REMARK    4  A    between atoms: _8  and  _9
REMARK    5  A    between atoms: _12  and  _14
REMARK    6  A    between atoms: _14  and  _15
REMARK    7  A    between atoms: _17  and  _19
REMARK    8  A    between atoms: _19  and  _20
REMARK    9  A    between atoms: _19  and  _22
REMARK   10  A    between atoms: _22  and  _23
REMARK   11  A    between atoms: _23  and  _24
REMARK   12  A    between atoms: _24  and  _25
REMARK   13  A    between atoms: _25  and  _26
REMARK   14  A    between atoms: _30  and  _32
REMARK   15  A    between atoms: _32  and  _33
REMARK   16  A    between atoms: _32  and  _35
REMARK   17  A    between atoms: _35  and  _36
REMARK   18  A    between atoms: _42  and  _44
REMARK   19  A    between atoms: _44  and  _45
REMARK   20  A    between atoms: _44  and  _47
REMARK   21  A    between atoms: _47  and  _48
REMARK   22  A    between atoms: _50  and  _52
REMARK   23  A    between atoms: _52  and  _53
REMARK   24  A    between atoms: _52  and  _55
REMARK   25  A    between atoms: _55  and  _56
REMARK   26  A    between atoms: _56  and  _57
REMARK   27  A    between atoms: _62  and  _64
REMARK   28  A    between atoms: _64  and  _65
REMARK   29  A    between atoms: _64  and  _67
REMARK   30  A    between atoms: _67  and  _68
REMARK   31  A    between atoms: _71  and  _73
REMARK   32  A    between atoms: _73  and  _74
REMARK   33  A    between atoms: _73  and  _76
REMARK   34  A    between atoms: _76  and  _77
REMARK   35  A    between atoms: _77  and  _84
REMARK   36  A    between atoms: _78  and  _80
REMARK   37  A    between atoms: _80  and  _81
REMARK   38  A    between atoms: _80  and  _83
REMARK   39  A    between atoms: _83  and  _84
REMARK   40  A    between atoms: _85  and  _87
REMARK   41  A    between atoms: _87  and  _88
REMARK   42  A    between atoms: _87  and  _90
REMARK   43  A    between atoms: _90  and  _91
REMARK   44  A    between atoms: _91  and  _92
REMARK   45  A    between atoms: _95  and  _97
REMARK   46  A    between atoms: _97  and  _98
REMARK   47  A    between atoms: _97  and  _100
REMARK   48  A    between atoms: _100  and  _101
REMARK   49  A    between atoms: _101  and  _102
REMARK   50  A    between atoms: _102  and  _103
REMARK   51  A    between atoms: _112  and  _114
REMARK   52  A    between atoms: _114  and  _115
REMARK   53  A    between atoms: _114  and  _117
REMARK   54  A    between atoms: _117  and  _118
REMARK   55  A    between atoms: _121  and  _123
REMARK   56  A    between atoms: _123  and  _124
REMARK   57  A    between atoms: _123  and  _126
REMARK   58  A    between atoms: _126  and  _127
REMARK   59  A    between atoms: _132  and  _134
REMARK   60  A    between atoms: _134  and  _135
REMARK   61  A    between atoms: _137  and  _139
REMARK   62  A    between atoms: _139  and  _140
REMARK   63  A    between atoms: _142  and  _144
REMARK   64  A    between atoms: _144  and  _145
REMARK   65  A    between atoms: _144  and  _147
REMARK   66  A    between atoms: _147  and  _148
REMARK   67  A    between atoms: _153  and  _154
REMARK   68  A    between atoms: _156  and  _158
REMARK   69  A    between atoms: _158  and  _159
REMARK   70  A    between atoms: _158  and  _161
REMARK   71  A    between atoms: _161  and  _162
REMARK   72  A    between atoms: _165  and  _167
REMARK   73  A    between atoms: _167  and  _168
REMARK   74  A    between atoms: _167  and  _170
REMARK   75  A    between atoms: _170  and  _171
REMARK   76  A    between atoms: _176  and  _178
REMARK   77  A    between atoms: _178  and  _179
REMARK   78  A    between atoms: _178  and  _181
REMARK   79  A    between atoms: _181  and  _182
REMARK   80  A    between atoms: _185  and  _187
REMARK   81  A    between atoms: _187  and  _188
REMARK   82  A    between atoms: _191  and  _193
REMARK   83  A    between atoms: _193  and  _194
REMARK   84  A    between atoms: _193  and  _196
REMARK   85  A    between atoms: _196  and  _197
REMARK   86  A    between atoms: _202  and  _204
REMARK   87  A    between atoms: _204  and  _205
REMARK   88  A    between atoms: _204  and  _207
REMARK   89  A    between atoms: _207  and  _208
REMARK   90  A    between atoms: _211  and  _213
REMARK   91  A    between atoms: _213  and  _214
REMARK   92  A    between atoms: _213  and  _216
REMARK   93  A    between atoms: _216  and  _217
REMARK   94  A    between atoms: _220  and  _222
REMARK   95  A    between atoms: _222  and  _223
REMARK   96  A    between atoms: _225  and  _227
REMARK   97  A    between atoms: _227  and  _228
REMARK   98  A    between atoms: _227  and  _230
REMARK   99  A    between atoms: _230  and  _231
REMARK  100  A    between atoms: _234  and  _236
REMARK  101  A    between atoms: _236  and  _237
REMARK  102  A    between atoms: _236  and  _239
REMARK  103  A    between atoms: _239  and  _240
REMARK  104  A    between atoms: _243  and  _245
REMARK  105  A    between atoms: _245  and  _246
REMARK  106  A    between atoms: _245  and  _248
REMARK  107  A    between atoms: _248  and  _249
REMARK  108  A    between atoms: _249  and  _250
REMARK  109  A    between atoms: _250  and  _251
REMARK  110  A    between atoms: _251  and  _252
REMARK  111  A    between atoms: _256  and  _258
REMARK  112  A    between atoms: _258  and  _259
REMARK  113  A    between atoms: _258  and  _261
REMARK  114  A    between atoms: _261  and  _262
REMARK  115  A    between atoms: _262  and  _263
REMARK                            x       y       z     vdW  Elec       q    Type
REMARK                         _______ _______ _______ _____ _____    ______ ____
ROOT
ATOM      1  SG  CYS A   1      30.901  49.235 134.536  0.00  0.00    -0.080 S 
ENDROOT
BRANCH   1   2
ATOM      2  CB  CYS A   1      30.043  49.806 135.985  0.00  0.00    +0.095 C 
BRANCH   2   3
ATOM      3  CA  CYS A   1      30.936  50.423 137.046  0.00  0.00    +0.156 C 
BRANCH   3   4
ATOM      4  C   CYS A   1      30.067  51.019 138.124  0.00  0.00    +0.239 C 
ATOM      5  O   CYS A   1      29.735  50.325 139.064  0.00  0.00    -0.274 OA
ATOM      6  N   GLU A   2      29.688  52.292 137.975  0.00  0.00    -0.297 N 
ATOM      7  H   GLU A   2      30.027  52.816 137.143  0.00  0.00    +0.150 HD
BRANCH   6   8
ATOM      8  CA  GLU A   2      28.812  52.987 138.936  0.00  0.00    +0.149 C 
BRANCH   8   9
ATOM      9  C   GLU A   2      27.403  52.377 138.903  0.00  0.00    +0.241 C 
ATOM     10  N   ARG A   3      26.878  52.052 140.084  0.00  0.00    -0.297 N 
ATOM     11  H   ARG A   3      27.459  52.131 140.943  0.00  0.00    +0.150 HD
ATOM     12  O   GLU A   2      26.811  52.184 137.821  0.00  0.00    -0.273 OA
BRANCH  10  13
ATOM     13  CA  ARG A   3      25.510  51.590 140.187  0.00  0.00    +0.149 C 
BRANCH  13  14
ATOM     14  C   ARG A   3      24.657  52.847 140.105  0.00  0.00    +0.241 C 
ATOM     15  N   THR A   4      23.336  52.704 140.192  0.00  0.00    -0.295 N 
ATOM     16  H   THR A   4      22.936  51.751 140.304  0.00  0.00    +0.150 HD
ATOM     17  O   ARG A   3      25.193  53.940 139.950  0.00  0.00    -0.273 OA
BRANCH  15  18
ATOM     18  CA  THR A   4      22.431  53.857 140.134  0.00  0.00    +0.176 C 
BRANCH  18  19
ATOM     19  C   THR A   4      22.119  54.348 141.533  0.00  0.00    +0.243 C 
ATOM     20  N   ASN A   5      22.732  53.701 142.518  0.00  0.00    -0.297 N 
ATOM     21  H   ASN A   5      23.332  52.882 142.294  0.00  0.00    +0.150 HD
ATOM     22  O   THR A   4      21.330  55.281 141.725  0.00  0.00    -0.273 OA
BRANCH  20  23
ATOM     23  CA  ASN A   5      22.580  54.116 143.905  0.00  0.00    +0.158 C 
BRANCH  23  24
ATOM     24  C   ASN A   5      23.706  55.074 144.246  0.00  0.00    +0.241 C 
ATOM     25  O   ASN A   5      23.543  55.948 145.066  0.00  0.00    -0.273 OA
ATOM     26  N   GLY A   6      24.855  54.901 143.610  0.00  0.00    -0.295 N 
ATOM     27  H   GLY A   6      24.930  54.156 142.888  0.00  0.00    +0.150 HD
BRANCH  26  28
ATOM     28  CA  GLY A   6      26.006  55.724 143.897  0.00  0.00    +0.176 C 
BRANCH  28  29
ATOM     29  C   GLY A   6      27.265  54.962 144.276  0.00  0.00    +0.243 C 
ATOM     30  N   GLY A   7      27.187  53.642 144.464  0.00  0.00    -0.295 N 
ATOM     31  H   GLY A   7      26.256  53.179 144.424  0.00  0.00    +0.150 HD
ATOM     32  O   GLY A   6      28.308  55.587 144.428  0.00  0.00    -0.273 OA
BRANCH  30  33
ATOM     33  CA  GLY A   7      28.388  52.820 144.728  0.00  0.00    +0.176 C 
BRANCH  33  34
ATOM     34  C   GLY A   7      28.889  52.181 143.432  0.00  0.00    +0.243 C 
ATOM     35  N   TYR A   8      29.754  51.174 143.527  0.00  0.00    -0.298 N 
ATOM     36  H   TYR A   8      30.066  50.872 144.472  0.00  0.00    +0.150 HD
ATOM     37  O   GLY A   7      28.478  52.587 142.352  0.00  0.00    -0.273 OA
BRANCH  35  38
ATOM     38  CA  TYR A   8      30.290  50.466 142.341  0.00  0.00    +0.141 C 
BRANCH  38  39
ATOM     39  C   TYR A   8      30.092  48.936 142.363  0.00  0.00    +0.227 C 
ATOM     40  O   TYR A   8      29.879  48.336 143.427  0.00  0.00    -0.286 OA
ENDBRANCH  38  39
BRANCH  38  41
ATOM     41  CB  TYR A   8      31.791  50.749 142.178  0.00  0.00    +0.054 C 
BRANCH  41  42
ATOM     42  CG  TYR A   8      32.109  52.200 141.928  0.00  0.00    -0.020 A 
ATOM     43  CD2 TYR A   8      32.517  53.026 142.977  0.00  0.00    -0.001 A 
ATOM     44  CE2 TYR A   8      32.798  54.364 142.751  0.00  0.00    +0.036 A 
ATOM     45  CZ  TYR A   8      32.659  54.885 141.444  0.00  0.00    +0.134 A 
ATOM     46  CE1 TYR A   8      32.247  54.077 140.380  0.00  0.00    +0.036 A 
ATOM     47  CD1 TYR A   8      31.988  52.749 140.626  0.00  0.00    -0.001 A 
BRANCH  45  48
ATOM     48  OH  TYR A   8      32.940  56.214 141.216  0.00  0.00    -0.506 OA
ATOM     49  HH  TYR A   8      32.795  56.421 140.259  0.00  0.00    +0.292 HD
ENDBRANCH  45  48
ENDBRANCH  41  42
ENDBRANCH  38  41
ENDBRANCH  35  38
ENDBRANCH  33  34
ENDBRANCH  30  33
ENDBRANCH  28  29
ENDBRANCH  26  28
ENDBRANCH  23  24
BRANCH  23  50
ATOM     50  CB  ASN A   5      22.593  52.910 144.859  0.00  0.00    +0.114 C 
BRANCH  50  51
ATOM     51  CG  ASN A   5      23.972  52.216 144.933  0.00  0.00    +0.222 C 
ATOM     52  OD1 ASN A   5      25.028  52.872 145.032  0.00  0.00    -0.275 OA
ATOM     53  ND2 ASN A   5      23.963  50.880 144.887  0.00  0.00    -0.329 N 
ATOM     54 HD21 ASN A   5      24.858  50.352 144.934  0.00  0.00    +0.145 HD
ATOM     55 HD22 ASN A   5      23.061  50.369 144.804  0.00  0.00    +0.145 HD
ENDBRANCH  50  51
ENDBRANCH  23  50
ENDBRANCH  20  23
ENDBRANCH  18  19
BRANCH  18  56
ATOM     56  CB  THR A   4      21.118  53.497 139.435  0.00  0.00    +0.137 C 
ATOM     57  CG2 THR A   4      20.503  54.754 138.807  0.00  0.00    +0.034 C 
BRANCH  56  58
ATOM     58  OG1 THR A   4      21.381  52.523 138.416  0.00  0.00    -0.382 OA
ATOM     59  HG1 THR A   4      22.017  52.900 137.758  0.00  0.00    +0.210 HD
ENDBRANCH  56  58
ENDBRANCH  18  56
ENDBRANCH  15  18
ENDBRANCH  13  14
BRANCH  13  60
ATOM     60  CB  ARG A   3      25.286  50.843 141.500  0.00  0.00    +0.033 C 
BRANCH  60  61
ATOM     61  CG  ARG A   3      26.478  49.991 141.917  0.00  0.00    +0.045 C 
BRANCH  61  62
ATOM     62  CD  ARG A   3      26.135  48.830 142.888  0.00  0.00    +0.174 C 
BRANCH  62  63
ATOM     63  NE  ARG A   3      25.134  47.911 142.333  0.00  0.00    -0.265 N 
ATOM     64  CZ  ARG A   3      23.958  47.661 142.911  0.00  0.00    +0.342 C 
ATOM     65  NH2 ARG A   3      23.664  48.245 144.073  0.00  0.00    -0.292 N 
ATOM     66 HH21 ARG A   3      22.750  48.057 144.533  0.00  0.00    +0.255 HD
ATOM     67 HH22 ARG A   3      24.349  48.888 144.520  0.00  0.00    +0.255 HD
ATOM     68  NH1 ARG A   3      23.078  46.841 142.345  0.00  0.00    -0.292 N 
ATOM     69 HH11 ARG A   3      22.166  46.657 142.809  0.00  0.00    +0.255 HD
ATOM     70 HH12 ARG A   3      23.302  46.384 141.438  0.00  0.00    +0.255 HD
ATOM     71  HE  ARG A   3      25.354  47.428 141.439  0.00  0.00    +0.259 HD
ENDBRANCH  62  63
ENDBRANCH  61  62
ENDBRANCH  60  61
ENDBRANCH  13  60
ENDBRANCH  10  13
ENDBRANCH   8   9
BRANCH   8  72
ATOM     72  CB  GLU A   2      28.755  54.488 138.616  0.00  0.00    +0.041 C 
BRANCH  72  73
ATOM     73  CG  GLU A   2      30.148  55.076 138.310  0.00  0.00    +0.116 C 
BRANCH  73  74
ATOM     74  CD  GLU A   2      30.146  56.487 137.685  0.00  0.00    +0.365 C 
ATOM     75  OE2 GLU A   2      29.057  57.071 137.482  0.00  0.00    -0.246 OA
ATOM     76  OE1 GLU A   2      31.249  57.013 137.408  0.00  0.00    -0.246 OA
ENDBRANCH  73  74
ENDBRANCH  72  73
ENDBRANCH   8  72
ENDBRANCH   6   8
ENDBRANCH   3   4
BRANCH   3  77
ATOM     77  N   CYS A   1      31.876  49.433 137.575  0.00  0.00    -0.237 NA
ATOM     78  H   CYS A   1      31.539  48.654 138.176  0.00  0.00    +0.142 HD
ENDBRANCH   3  77
ENDBRANCH   2   3
ENDBRANCH   1   2
BRANCH   1  79
ATOM     79  SG  TYR A   8      31.002  50.843 133.295  0.00  0.00    -0.080 S 
BRANCH  79  80
ATOM     80  CB  TYR A   8      32.685  51.371 133.498  0.00  0.00    +0.096 C 
BRANCH  80  81
ATOM     81  CA  TYR A   8      32.874  52.550 134.463  0.00  0.00    +0.149 C 
BRANCH  81  84
ATOM     82  C   GLY A   7      31.107  54.244 134.681  0.00  0.00    +0.243 C 
ATOM     83  O   GLY A   7      30.687  53.803 135.750  0.00  0.00    -0.273 OA
ATOM     84  N   TYR A   8      32.101  53.692 133.993  0.00  0.00    -0.297 N 
ATOM     85  H   TYR A   8      32.341  54.098 133.066  0.00  0.00    +0.150 HD
BRANCH  82  86
ATOM     86  CA  GLY A   7      30.486  55.481 134.043  0.00  0.00    +0.176 C 
BRANCH  86  89
ATOM     87  C   GLY A   6      31.246  56.803 132.136  0.00  0.00    +0.241 C 
ATOM     88  O   GLY A   6      31.383  57.834 132.816  0.00  0.00    -0.273 OA
ATOM     89  N   GLY A   7      30.940  55.622 132.662  0.00  0.00    -0.295 N 
ATOM     90  H   GLY A   7      31.027  54.770 132.071  0.00  0.00    +0.150 HD
BRANCH  87  91
ATOM     91  CA  GLY A   6      31.418  56.843 130.613  0.00  0.00    +0.149 C 
BRANCH  91  94
ATOM     92  C   ASN A   5      32.947  54.944 130.231  0.00  0.00    +0.243 C 
ATOM     93  O   ASN A   5      33.873  55.462 130.881  0.00  0.00    -0.273 OA
ATOM     94  N   GLY A   6      31.762  55.521 130.064  0.00  0.00    -0.297 N 
ATOM     95  H   GLY A   6      31.039  55.012 129.516  0.00  0.00    +0.150 HD
BRANCH  92  96
ATOM     96  CA  ASN A   5      33.148  53.597 129.534  0.00  0.00    +0.178 C 
BRANCH  96  99
ATOM     97  C   THR A   4      30.993  52.595 130.014  0.00  0.00    +0.241 C 
ATOM     98  O   THR A   4      31.080  52.936 131.209  0.00  0.00    -0.273 OA
ATOM     99  N   ASN A   5      31.915  52.943 129.113  0.00  0.00    -0.295 N 
ATOM    100  H   ASN A   5      31.753  52.746 128.105  0.00  0.00    +0.150 HD
BRANCH  97 101
ATOM    101  CA  THR A   4      29.789  51.759 129.512  0.00  0.00    +0.153 C 
BRANCH 101 104
ATOM    102  C   ARG A   3      28.992  53.358 127.946  0.00  0.00    +0.241 C 
ATOM    103  O   ARG A   3      28.911  54.160 128.879  0.00  0.00    -0.273 OA
ATOM    104  N   THR A   4      29.431  52.127 128.147  0.00  0.00    -0.297 N 
ATOM    105  H   THR A   4      29.517  51.449 127.363  0.00  0.00    +0.150 HD
BRANCH 102 106
ATOM    106  CA  ARG A   3      28.527  53.769 126.545  0.00  0.00    +0.149 C 
BRANCH 106 109
ATOM    107  C   GLU A   2      26.781  52.157 125.972  0.00  0.00    +0.243 C 
ATOM    108  O   GLU A   2      26.075  52.493 126.924  0.00  0.00    -0.273 OA
ATOM    109  N   ARG A   3      27.968  52.709 125.704  0.00  0.00    -0.297 N 
ATOM    110  H   ARG A   3      28.507  52.378 124.879  0.00  0.00    +0.150 HD
BRANCH 107 111
ATOM    111  CA  GLU A   2      26.297  51.074 125.033  0.00  0.00    +0.176 C 
BRANCH 111 113
ATOM    112  C   CYS A   1      24.378  52.145 124.013  0.00  0.00    +0.202 C 
ATOM    113  N   GLU A   2      24.859  51.196 124.809  0.00  0.00    -0.298 N 
ATOM    114  H   GLU A   2      24.206  50.535 125.276  0.00  0.00    +0.150 HD
ATOM    115  O   CYS A   1      25.080  53.063 123.587  0.00  0.00    -0.277 OA
BRANCH 112 116
ATOM    116  CA  CYS A   1      22.910  52.059 123.597  0.00  0.00    +0.013 C 
BRANCH 116 117
ATOM    117  N   CYS A   1      22.571  53.351 122.960  0.00  0.00    +0.387 N 
ATOM    118  H1  CYS A   1      22.718  54.122 123.643  0.00  0.00    -0.089 HD
ATOM    119  H2  CYS A   1      21.575  53.337 122.659  0.00  0.00    -0.089 HD
ATOM    120  H3  CYS A   1      23.182  53.499 122.132  0.00  0.00    -0.089 HD
ENDBRANCH 116 117
BRANCH 116 121
ATOM    121  CB  CYS A   1      22.742  50.941 122.558  0.00  0.00    -0.013 C 
BRANCH 121 122
ATOM    122  CG  CYS A   1      21.369  50.800 121.899  0.00  0.00    -0.002 C 
ATOM    123  CD2 CYS A   1      20.345  50.193 122.886  0.00  0.00    -0.000 C 
ATOM    124  CD1 CYS A   1      21.463  49.972 120.621  0.00  0.00    -0.000 C 
ENDBRANCH 121 122
ENDBRANCH 116 121
ENDBRANCH 112 116
ENDBRANCH 111 113
ENDBRANCH 107 111
ENDBRANCH 106 109
BRANCH 106 125
ATOM    125  CB  ARG A   3      27.473  54.833 126.748  0.00  0.00    +0.029 C 
BRANCH 125 126
ATOM    126  CG  ARG A   3      26.837  55.239 125.499  0.00  0.00    +0.000 C 
BRANCH 126 127
ATOM    127  CD  ARG A   3      27.845  55.833 124.604  0.00  0.00    -0.024 C 
BRANCH 127 128
ATOM    128  CE  ARG A   3      27.170  57.015 124.069  0.00  0.00    -0.086 C 
BRANCH 128 129
ATOM    129  NZ  ARG A   3      25.757  56.583 124.165  0.00  0.00    +0.380 N 
ATOM    130  HZ1 ARG A   3      25.524  56.380 125.158  0.00  0.00    -0.089 HD
ATOM    131  HZ2 ARG A   3      25.139  57.341 123.811  0.00  0.00    -0.089 HD
ATOM    132  HZ3 ARG A   3      25.618  55.725 123.593  0.00  0.00    -0.089 HD
ENDBRANCH 128 129
ENDBRANCH 127 128
ENDBRANCH 126 127
ENDBRANCH 125 126
ENDBRANCH 106 125
ENDBRANCH 102 106
ENDBRANCH 101 104
BRANCH 101 133
ATOM    133  CB  THR A   4      30.139  50.294 129.606  0.00  0.00    +0.055 C 
BRANCH 133 134
ATOM    134  CG  THR A   4      31.463  49.978 129.032  0.00  0.00    -0.020 A 
ATOM    135  CD2 THR A   4      32.543  49.695 129.872  0.00  0.00    -0.004 A 
ATOM    136  CE2 THR A   4      33.796  49.387 129.337  0.00  0.00    -0.000 A 
ATOM    137  CZ  THR A   4      33.968  49.372 127.942  0.00  0.00    -0.000 A 
ATOM    138  CE1 THR A   4      32.880  49.659 127.100  0.00  0.00    -0.000 A 
ATOM    139  CD1 THR A   4      31.641  49.962 127.652  0.00  0.00    -0.004 A 
ENDBRANCH 133 134
ENDBRANCH 101 133
ENDBRANCH  97 101
ENDBRANCH  96  99
BRANCH  96 140
ATOM    140  CB  ASN A   5      34.081  53.753 128.350  0.00  0.00    +0.166 C 
BRANCH 140 141
ATOM    141  O   ASN A   5      33.676  54.853 127.582  0.00  0.00    -0.380 OA
ATOM    142  H   ASN A   5      32.752  54.706 127.259  0.00  0.00    +0.211 HD
ENDBRANCH 140 141
ENDBRANCH  96 140
ENDBRANCH  92  96
ENDBRANCH  91  94
BRANCH  91 143
ATOM    143  CB  GLY A   6      30.107  57.382 129.969  0.00  0.00    +0.039 C 
BRANCH 143 144
ATOM    144  CG  GLY A   6      30.304  58.160 128.665  0.00  0.00    +0.087 C 
BRANCH 144 145
ATOM    145  CD  GLY A   6      29.003  58.480 127.947  0.00  0.00    +0.219 C 
ATOM    146  OE1 GLY A   6      27.976  58.710 128.564  0.00  0.00    -0.275 OA
ATOM    147  NE2 GLY A   6      29.046  58.488 126.629  0.00  0.00    -0.329 N 
ATOM    148 HE21 GLY A   6      29.940  58.287 126.137  0.00  0.00    +0.145 HD
ATOM    149 HE22 GLY A   6      28.186  58.695 126.082  0.00  0.00    +0.145 HD
ENDBRANCH 144 145
ENDBRANCH 143 144
ENDBRANCH  91 143
ENDBRANCH  87  91
ENDBRANCH  86  89
BRANCH  86 150
ATOM    150  CB  GLY A   7      28.917  55.370 134.127  0.00  0.00    +0.137 C 
ATOM    151  CG2 GLY A   7      28.268  56.661 133.705  0.00  0.00    +0.034 C 
BRANCH 150 152
ATOM    152  OG1 GLY A   7      28.438  54.295 133.289  0.00  0.00    -0.382 OA
ATOM    153  HG1 GLY A   7      28.698  54.469 132.350  0.00  0.00    +0.210 HD
ENDBRANCH 150 152
ENDBRANCH  86 150
ENDBRANCH  82  86
ENDBRANCH  81  84
BRANCH  81 154
ATOM    154  C   TYR A   8      34.368  52.883 134.477  0.00  0.00    +0.228 C 
ATOM    155  O   TYR A   8      34.815  53.770 133.750  0.00  0.00    -0.286 OA
ENDBRANCH  81 154
ENDBRANCH  80  81
ENDBRANCH  79  80
ENDBRANCH   1  79
TORSDOF 67
REMARK  Name = ../refined-set-2016/3gxy/3gxy_pocket.pdb
REMARK  115 active torsions:
REMARK  status: ('A' for Active; 'I' for Inactive)
REMARK    1  A    between atoms: _1  and  _5
REMARK    2  A    between atoms: _5  and  _6
REMARK    3  A    between atoms: _5  and  _8
REMARK    4  A    between atoms: _8  and  _9
REMARK    5  A    between atoms: _12  and  _14
REMARK    6  A    between atoms: _14  and  _15
REMARK    7  A    between atoms: _17  and  _19
REMARK    8  A    between atoms: _19  and  _20
REMARK    9  A    between atoms: _19  and  _22
REMARK   10  A    between atoms: _22  and  _23
REMARK   11  A    between atoms: _23  and  _24
REMARK   12  A    between atoms: _24  and  _25
REMARK   13  A    between atoms: _25  and  _26
REMARK   14  A    between atoms: _30  and  _32
REMARK   15  A    between atoms: _32  and  _33
REMARK   16  A    between atoms: _32  and  _35
REMARK   17  A    between atoms: _35  and  _36
REMARK   18  A    between atoms: _42  and  _44
REMARK   19  A    between atoms: _44  and  _45
REMARK   20  A    between atoms: _44  and  _47
REMARK   21  A    between atoms: _47  and  _48
REMARK   22  A    between atoms: _50  and  _52
REMARK   23  A    between atoms: _52  and  _53
REMARK   24  A    between atoms: _52  and  _55
REMARK   25  A    between atoms: _55  and  _56
REMARK   26  A    between atoms: _56  and  _57
REMARK   27  A    between atoms: _62  and  _64
REMARK   28  A    between atoms: _64  and  _65
REMARK   29  A    between atoms: _64  and  _67
REMARK   30  A    between atoms: _67  and  _68
REMARK   31  A    between atoms: _71  and  _73
REMARK   32  A    between atoms: _73  and  _74
REMARK   33  A    between atoms: _73  and  _76
REMARK   34  A    between atoms: _76  and  _77
REMARK   35  A    between atoms: _77  and  _84
REMARK   36  A    between atoms: _78  and  _80
REMARK   37  A    between atoms: _80  and  _81
REMARK   38  A    between atoms: _80  and  _83
REMARK   39  A    between atoms: _83  and  _84
REMARK   40  A    between atoms: _85  and  _87
REMARK   41  A    between atoms: _87  and  _88
REMARK   42  A    between atoms: _87  and  _90
REMARK   43  A    between atoms: _90  and  _91
REMARK   44  A    between atoms: _91  and  _92
REMARK   45  A    between atoms: _95  and  _97
REMARK   46  A    between atoms: _97  and  _98
REMARK   47  A    between atoms: _97  and  _100
REMARK   48  A    between atoms: _100  and  _101
REMARK   49  A    between atoms: _101  and  _102
REMARK   50  A    between atoms: _102  and  _103
REMARK   51  A    between atoms: _112  and  _114
REMARK   52  A    between atoms: _114  and  _115
REMARK   53  A    between atoms: _114  and  _117
REMARK   54  A    between atoms: _117  and  _118
REMARK   55  A    between atoms: _121  and  _123
REMARK   56  A    between atoms: _123  and  _124
REMARK   57  A    between atoms: _123  and  _126
REMARK   58  A    between atoms: _126  and  _127
REMARK   59  A    between atoms: _132  and  _134
REMARK   60  A    between atoms: _134  and  _135
REMARK   61  A    between atoms: _137  and  _139
REMARK   62  A    between atoms: _139  and  _140
REMARK   63  A    between atoms: _142  and  _144
REMARK   64  A    between atoms: _144  and  _145
REMARK   65  A    between atoms: _144  and  _147
REMARK   66  A    between atoms: _147  and  _148
REMARK   67  A    between atoms: _153  and  _154
REMARK   68  A    between atoms: _156  and  _158
REMARK   69  A    between atoms: _158  and  _159
REMARK   70  A    between atoms: _158  and  _161
REMARK   71  A    between atoms: _161  and  _162
REMARK   72  A    between atoms: _165  and  _167
REMARK   73  A    between atoms: _167  and  _168
REMARK   74  A    between atoms: _167  and  _170
REMARK   75  A    between atoms: _170  and  _171
REMARK   76  A    between atoms: _176  and  _178
REMARK   77  A    between atoms: _178  and  _179
REMARK   78  A    between atoms: _178  and  _181
REMARK   79  A    between atoms: _181  and  _182
REMARK   80  A    between atoms: _185  and  _187
REMARK   81  A    between atoms: _187  and  _188
REMARK   82  A    between atoms: _191  and  _193
REMARK   83  A    between atoms: _193  and  _194
REMARK   84  A    between atoms: _193  and  _196
REMARK   85  A    between atoms: _196  and  _197
REMARK   86  A    between atoms: _202  and  _204
REMARK   87  A    between atoms: _204  and  _205
REMARK   88  A    between atoms: _204  and  _207
REMARK   89  A    between atoms: _207  and  _208
REMARK   90  A    between atoms: _211  and  _213
REMARK   91  A    between atoms: _213  and  _214
REMARK   92  A    between atoms: _213  and  _216
REMARK   93  A    between atoms: _216  and  _217
REMARK   94  A    between atoms: _220  and  _222
REMARK   95  A    between atoms: _222  and  _223
REMARK   96  A    between atoms: _225  and  _227
REMARK   97  A    between atoms: _227  and  _228
REMARK   98  A    between atoms: _227  and  _230
REMARK   99  A    between atoms: _230  and  _231
REMARK  100  A    between atoms: _234  and  _236
REMARK  101  A    between atoms: _236  and  _237
REMARK  102  A    between atoms: _236  and  _239
REMARK  103  A    between atoms: _239  and  _240
REMARK  104  A    between atoms: _243  and  _245
REMARK  105  A    between atoms: _245  and  _246
REMARK  106  A    between atoms: _245  and  _248
REMARK  107  A    between atoms: _248  and  _249
REMARK  108  A    between atoms: _249  and  _250
REMARK  109  A    between atoms: _250  and  _251
REMARK  110  A    between atoms: _251  and  _252
REMARK  111  A    between atoms: _256  and  _258
REMARK  112  A    between atoms: _258  and  _259
REMARK  113  A    between atoms: _258  and  _261
REMARK  114  A    between atoms: _261  and  _262
REMARK  115  A    between atoms: _262  and  _263
REMARK                            x       y       z     vdW  Elec       q    Type
REMARK                         _______ _______ _______ _____ _____    ______ ____
ROOT
ATOM      1  CA  ASP A   1      30.896  51.457 123.550  0.00  0.00    +0.144 C 
ENDROOT
BRANCH   1   2
ATOM      2  N   ASP A   1      31.904  50.530 123.058  0.00  0.00    -0.239 NA
ATOM      3  H   ASP A   1      32.792  50.889 122.653  0.00  0.00    +0.142 HD
ENDBRANCH   1   2
BRANCH   1   4
ATOM      4  C   ASP A   1      29.654  51.478 122.658  0.00  0.00    +0.225 C 
ATOM      5  O   ASP A   1      28.634  51.966 123.111  0.00  0.00    -0.287 OA
ENDBRANCH   1   4
BRANCH   1   6
ATOM      6  CB  ASP A   1      31.450  52.871 123.653  0.00  0.00    +0.139 C 
BRANCH   6   7
ATOM      7  CG  ASP A   1      31.899  53.240 125.074  0.00  0.00    +0.367 C 
ATOM      8  OD2 ASP A   1      31.700  52.441 126.004  0.00  0.00    -0.246 OA
ATOM      9  OD1 ASP A   1      32.443  54.355 125.265  0.00  0.00    -0.246 OA
ENDBRANCH   6   7
ENDBRANCH   1   6
TORSDOF 4
REMARK  Name = ../refined-set-2016/3gxy/3gxy_pocket.pdb
REMARK  115 active torsions:
REMARK  status: ('A' for Active; 'I' for Inactive)
REMARK    1  A    between atoms: _1  and  _5
REMARK    2  A    between atoms: _5  and  _6
REMARK    3  A    between atoms: _5  and  _8
REMARK    4  A    between atoms: _8  and  _9
REMARK    5  A    between atoms: _12  and  _14
REMARK    6  A    between atoms: _14  and  _15
REMARK    7  A    between atoms: _17  and  _19
REMARK    8  A    between atoms: _19  and  _20
REMARK    9  A    between atoms: _19  and  _22
REMARK   10  A    between atoms: _22  and  _23
REMARK   11  A    between atoms: _23  and  _24
REMARK   12  A    between atoms: _24  and  _25
REMARK   13  A    between atoms: _25  and  _26
REMARK   14  A    between atoms: _30  and  _32
REMARK   15  A    between atoms: _32  and  _33
REMARK   16  A    between atoms: _32  and  _35
REMARK   17  A    between atoms: _35  and  _36
REMARK   18  A    between atoms: _42  and  _44
REMARK   19  A    between atoms: _44  and  _45
REMARK   20  A    between atoms: _44  and  _47
REMARK   21  A    between atoms: _47  and  _48
REMARK   22  A    between atoms: _50  and  _52
REMARK   23  A    between atoms: _52  and  _53
REMARK   24  A    between atoms: _52  and  _55
REMARK   25  A    between atoms: _55  and  _56
REMARK   26  A    between atoms: _56  and  _57
REMARK   27  A    between atoms: _62  and  _64
REMARK   28  A    between atoms: _64  and  _65
REMARK   29  A    between atoms: _64  and  _67
REMARK   30  A    between atoms: _67  and  _68
REMARK   31  A    between atoms: _71  and  _73
REMARK   32  A    between atoms: _73  and  _74
REMARK   33  A    between atoms: _73  and  _76
REMARK   34  A    between atoms: _76  and  _77
REMARK   35  A    between atoms: _77  and  _84
REMARK   36  A    between atoms: _78  and  _80
REMARK   37  A    between atoms: _80  and  _81
REMARK   38  A    between atoms: _80  and  _83
REMARK   39  A    between atoms: _83  and  _84
REMARK   40  A    between atoms: _85  and  _87
REMARK   41  A    between atoms: _87  and  _88
REMARK   42  A    between atoms: _87  and  _90
REMARK   43  A    between atoms: _90  and  _91
REMARK   44  A    between atoms: _91  and  _92
REMARK   45  A    between atoms: _95  and  _97
REMARK   46  A    between atoms: _97  and  _98
REMARK   47  A    between atoms: _97  and  _100
REMARK   48  A    between atoms: _100  and  _101
REMARK   49  A    between atoms: _101  and  _102
REMARK   50  A    between atoms: _102  and  _103
REMARK   51  A    between atoms: _112  and  _114
REMARK   52  A    between atoms: _114  and  _115
REMARK   53  A    between atoms: _114  and  _117
REMARK   54  A    between atoms: _117  and  _118
REMARK   55  A    between atoms: _121  and  _123
REMARK   56  A    between atoms: _123  and  _124
REMARK   57  A    between atoms: _123  and  _126
REMARK   58  A    between atoms: _126  and  _127
REMARK   59  A    between atoms: _132  and  _134
REMARK   60  A    between atoms: _134  and  _135
REMARK   61  A    between atoms: _137  and  _139
REMARK   62  A    between atoms: _139  and  _140
REMARK   63  A    between atoms: _142  and  _144
REMARK   64  A    between atoms: _144  and  _145
REMARK   65  A    between atoms: _144  and  _147
REMARK   66  A    between atoms: _147  and  _148
REMARK   67  A    between atoms: _153  and  _154
REMARK   68  A    between atoms: _156  and  _158
REMARK   69  A    between atoms: _158  and  _159
REMARK   70  A    between atoms: _158  and  _161
REMARK   71  A    between atoms: _161  and  _162
REMARK   72  A    between atoms: _165  and  _167
REMARK   73  A    between atoms: _167  and  _168
REMARK   74  A    between atoms: _167  and  _170
REMARK   75  A    between atoms: _170  and  _171
REMARK   76  A    between atoms: _176  and  _178
REMARK   77  A    between atoms: _178  and  _179
REMARK   78  A    between atoms: _178  and  _181
REMARK   79  A    between atoms: _181  and  _182
REMARK   80  A    between atoms: _185  and  _187
REMARK   81  A    between atoms: _187  and  _188
REMARK   82  A    between atoms: _191  and  _193
REMARK   83  A    between atoms: _193  and  _194
REMARK   84  A    between atoms: _193  and  _196
REMARK   85  A    between atoms: _196  and  _197
REMARK   86  A    between atoms: _202  and  _204
REMARK   87  A    between atoms: _204  and  _205
REMARK   88  A    between atoms: _204  and  _207
REMARK   89  A    between atoms: _207  and  _208
REMARK   90  A    between atoms: _211  and  _213
REMARK   91  A    between atoms: _213  and  _214
REMARK   92  A    between atoms: _213  and  _216
REMARK   93  A    between atoms: _216  and  _217
REMARK   94  A    between atoms: _220  and  _222
REMARK   95  A    between atoms: _222  and  _223
REMARK   96  A    between atoms: _225  and  _227
REMARK   97  A    between atoms: _227  and  _228
REMARK   98  A    between atoms: _227  and  _230
REMARK   99  A    between atoms: _230  and  _231
REMARK  100  A    between atoms: _234  and  _236
REMARK  101  A    between atoms: _236  and  _237
REMARK  102  A    between atoms: _236  and  _239
REMARK  103  A    between atoms: _239  and  _240
REMARK  104  A    between atoms: _243  and  _245
REMARK  105  A    between atoms: _245  and  _246
REMARK  106  A    between atoms: _245  and  _248
REMARK  107  A    between atoms: _248  and  _249
REMARK  108  A    between atoms: _249  and  _250
REMARK  109  A    between atoms: _250  and  _251
REMARK  110  A    between atoms: _251  and  _252
REMARK  111  A    between atoms: _256  and  _258
REMARK  112  A    between atoms: _258  and  _259
REMARK  113  A    between atoms: _258  and  _261
REMARK  114  A    between atoms: _261  and  _262
REMARK  115  A    between atoms: _262  and  _263
REMARK                            x       y       z     vdW  Elec       q    Type
REMARK                         _______ _______ _______ _____ _____    ______ ____
ROOT
ATOM      1  C   ILE A   5      23.252  48.427 135.026  0.00  0.00    +0.241 C 
ATOM      2  N   ASP A   6      23.179  49.525 135.776  0.00  0.00    -0.297 N 
ATOM      3  H   ASP A   6      23.095  50.443 135.295  0.00  0.00    +0.150 HD
ATOM      4  O   ILE A   5      23.320  47.286 135.491  0.00  0.00    -0.273 OA
ENDROOT
BRANCH   1   5
ATOM      5  CA  ILE A   5      23.272  48.663 133.510  0.00  0.00    +0.149 C 
BRANCH   5   7
ATOM      6  C   ASN A   4      25.245  49.759 132.666  0.00  0.00    +0.241 C 
ATOM      7  N   ILE A   5      24.640  48.631 133.023  0.00  0.00    -0.297 N 
ATOM      8  H   ILE A   5      25.146  47.725 132.954  0.00  0.00    +0.150 HD
ATOM      9  O   ASN A   4      24.643  50.851 132.611  0.00  0.00    -0.273 OA
BRANCH   6  10
ATOM     10  CA  ASN A   4      26.703  49.647 132.195  0.00  0.00    +0.158 C 
BRANCH  10  12
ATOM     11  C   ALA A   3      26.625  48.850 129.934  0.00  0.00    +0.241 C 
ATOM     12  N   ASN A   4      26.663  49.866 130.777  0.00  0.00    -0.297 N 
ATOM     13  H   ASN A   4      26.664  50.838 130.408  0.00  0.00    +0.150 HD
ATOM     14  O   ALA A   3      26.892  47.708 130.244  0.00  0.00    -0.273 OA
BRANCH  11  15
ATOM     15  CA  ALA A   3      26.314  49.204 128.526  0.00  0.00    +0.149 C 
ATOM     16  CB  ALA A   3      24.811  49.283 128.330  0.00  0.00    +0.031 C 
BRANCH  15  18
ATOM     17  C   ILE A   2      27.875  48.534 126.805  0.00  0.00    +0.241 C 
ATOM     18  N   ALA A   3      26.923  48.197 127.668  0.00  0.00    -0.297 N 
ATOM     19  H   ALA A   3      26.610  47.207 127.731  0.00  0.00    +0.150 HD
ATOM     20  O   ILE A   2      28.332  49.691 126.727  0.00  0.00    -0.273 OA
BRANCH  17  21
ATOM     21  CA  ILE A   2      28.330  47.443 125.844  0.00  0.00    +0.148 C 
BRANCH  21  23
ATOM     22  C   HIS A   1      26.983  47.648 123.825  0.00  0.00    +0.239 C 
ATOM     23  N   ILE A   2      28.120  47.906 124.466  0.00  0.00    -0.297 N 
ATOM     24  H   ILE A   2      28.870  48.443 123.985  0.00  0.00    +0.150 HD
ATOM     25  O   HIS A   1      26.126  46.938 124.285  0.00  0.00    -0.274 OA
BRANCH  22  26
ATOM     26  CA  HIS A   1      26.775  48.200 122.462  0.00  0.00    +0.151 C 
BRANCH  26  27
ATOM     27  N   HIS A   1      27.818  49.042 121.950  0.00  0.00    -0.238 NA
ATOM     28  H   HIS A   1      28.822  48.814 122.100  0.00  0.00    +0.142 HD
ENDBRANCH  26  27
BRANCH  26  29
ATOM     29  CB  HIS A   1      26.486  47.048 121.504  0.00  0.00    +0.074 C 
BRANCH  29  30
ATOM     30  CG  HIS A   1      25.818  47.502 120.247  0.00  0.00    +0.082 A 
ATOM     31  ND1 HIS A   1      24.469  47.800 120.194  0.00  0.00    -0.227 NA
ATOM     32  CE1 HIS A   1      24.163  48.221 118.978  0.00  0.00    +0.199 A 
ATOM     33  NE2 HIS A   1      25.263  48.206 118.245  0.00  0.00    -0.221 NA
ATOM     34  CD2 HIS A   1      26.318  47.773 119.014  0.00  0.00    +0.115 A 
ENDBRANCH  29  30
ENDBRANCH  26  29
ENDBRANCH  22  26
ENDBRANCH  21  23
BRANCH  21  35
ATOM     35  CB  ILE A   2      29.761  47.065 126.103  0.00  0.00    +0.027 C 
ATOM     36  CG2 ILE A   2      29.881  46.517 127.508  0.00  0.00    +0.002 C 
BRANCH  35  37
ATOM     37  CG1 ILE A   2      30.196  45.979 125.125  0.00  0.00    +0.002 C 
ATOM     38  CD1 ILE A   2      29.301  44.702 125.186  0.00  0.00    +0.000 C 
ENDBRANCH  35  37
ENDBRANCH  21  35
ENDBRANCH  17  21
ENDBRANCH  15  18
ENDBRANCH  11  15
ENDBRANCH  10  12
BRANCH  10  39
ATOM     39  CB  ASN A   4      27.606  50.695 132.852  0.00  0.00    +0.114 C 
BRANCH  39  40
ATOM     40  CG  ASN A   4      27.295  50.882 134.329  0.00  0.00    +0.222 C 
ATOM     41  OD1 ASN A   4      26.688  50.003 134.952  0.00  0.00    -0.275 OA
ATOM     42  ND2 ASN A   4      27.712  52.031 134.895  0.00  0.00    -0.329 N 
ATOM     43 HD21 ASN A   4      27.527  52.212 135.902  0.00  0.00    +0.145 HD
ATOM     44 HD22 ASN A   4      28.219  52.738 134.325  0.00  0.00    +0.145 HD
ENDBRANCH  39  40
ENDBRANCH  10  39
ENDBRANCH   6  10
ENDBRANCH   5   7
BRANCH   5  45
ATOM     45  CB  ILE A   5      22.418  47.602 132.842  0.00  0.00    +0.027 C 
ATOM     46  CG2 ILE A   5      21.089  47.523 133.551  0.00  0.00    +0.002 C 
BRANCH  45  47
ATOM     47  CG1 ILE A   5      22.250  47.904 131.337  0.00  0.00    +0.002 C 
ATOM     48  CD1 ILE A   5      21.912  49.369 130.997  0.00  0.00    +0.000 C 
ENDBRANCH  45  47
ENDBRANCH   5  45
ENDBRANCH   1   5
BRANCH   2  49
ATOM     49  CA  ASP A   6      23.210  49.511 137.238  0.00  0.00    +0.160 C 
BRANCH  49  50
ATOM     50  C   ASP A   6      24.361  48.682 137.809  0.00  0.00    +0.241 C 
ATOM     51  O   ASP A   6      24.175  47.900 138.755  0.00  0.00    -0.273 OA
ATOM     52  N   GLY A   7      25.551  48.859 137.232  0.00  0.00    -0.295 N 
ATOM     53  H   GLY A   7      25.605  49.434 136.367  0.00  0.00    +0.150 HD
BRANCH  52  54
ATOM     54  CA  GLY A   7      26.781  48.279 137.764  0.00  0.00    +0.176 C 
BRANCH  54  55
ATOM     55  C   GLY A   7      27.133  46.986 137.068  0.00  0.00    +0.243 C 
ATOM     56  O   GLY A   7      28.093  46.329 137.466  0.00  0.00    -0.273 OA
ATOM     57  N   THR A   8      26.344  46.596 136.051  0.00  0.00    -0.295 N 
ATOM     58  H   THR A   8      25.562  47.210 135.744  0.00  0.00    +0.150 HD
BRANCH  57  59
ATOM     59  CA  THR A   8      26.568  45.329 135.374  0.00  0.00    +0.176 C 
BRANCH  59  60
ATOM     60  C   THR A   8      26.608  45.526 133.868  0.00  0.00    +0.243 C 
ATOM     61  N   LEU A   9      27.721  45.074 133.283  0.00  0.00    -0.297 N 
ATOM     62  H   LEU A   9      28.458  44.642 133.876  0.00  0.00    +0.150 HD
ATOM     63  O   THR A   8      25.672  46.083 133.260  0.00  0.00    -0.273 OA
BRANCH  61  64
ATOM     64  CA  LEU A   9      27.941  45.164 131.837  0.00  0.00    +0.149 C 
BRANCH  64  65
ATOM     65  C   LEU A   9      26.924  44.293 131.096  0.00  0.00    +0.241 C 
ATOM     66  O   LEU A   9      26.737  43.133 131.453  0.00  0.00    -0.273 OA
ATOM     67  N   LYS A  10      26.275  44.859 130.081  0.00  0.00    -0.298 N 
ATOM     68  H   LYS A  10      26.484  45.851 129.849  0.00  0.00    +0.150 HD
BRANCH  67  69
ATOM     69  CA  LYS A  10      25.281  44.147 129.278  0.00  0.00    +0.137 C 
BRANCH  69  70
ATOM     70  C   LYS A  10      25.534  44.442 127.819  0.00  0.00    +0.227 C 
ATOM     71  O   LYS A  10      26.010  45.533 127.458  0.00  0.00    -0.286 OA
ENDBRANCH  69  70
BRANCH  69  72
ATOM     72  CB  LYS A  10      23.877  44.686 129.579  0.00  0.00    +0.028 C 
BRANCH  72  73
ATOM     73  CG  LYS A  10      23.375  44.363 130.938  0.00  0.00    -0.000 C 
BRANCH  73  74
ATOM     74  CD  LYS A  10      23.375  42.879 131.085  0.00  0.00    -0.024 C 
BRANCH  74  75
ATOM     75  CE  LYS A  10      22.389  42.520 132.134  0.00  0.00    -0.086 C 
BRANCH  75  76
ATOM     76  NZ  LYS A  10      21.336  43.552 131.945  0.00  0.00    +0.380 N 
ATOM     77  HZ1 LYS A  10      20.576  43.401 132.638  0.00  0.00    -0.089 HD
ATOM     78  HZ2 LYS A  10      21.749  44.496 132.083  0.00  0.00    -0.089 HD
ATOM     79  HZ3 LYS A  10      20.949  43.479 130.982  0.00  0.00    -0.089 HD
ENDBRANCH  75  76
ENDBRANCH  74  75
ENDBRANCH  73  74
ENDBRANCH  72  73
ENDBRANCH  69  72
ENDBRANCH  67  69
ENDBRANCH  64  65
BRANCH  64  80
ATOM     80  CB  LEU A   9      29.363  44.719 131.496  0.00  0.00    +0.029 C 
BRANCH  80  81
ATOM     81  CG  LEU A   9      30.504  45.583 132.080  0.00  0.00    +0.002 C 
ATOM     82  CD2 LEU A   9      31.840  44.826 132.015  0.00  0.00    +0.000 C 
ATOM     83  CD1 LEU A   9      30.632  46.915 131.404  0.00  0.00    +0.000 C 
ENDBRANCH  80  81
ENDBRANCH  64  80
ENDBRANCH  61  64
ENDBRANCH  59  60
BRANCH  59  84
ATOM     84  CB  THR A   8      25.496  44.264 135.728  0.00  0.00    +0.137 C 
ATOM     85  CG2 THR A   8      25.513  43.134 134.744  0.00  0.00    +0.034 C 
BRANCH  84  86
ATOM     86  OG1 THR A   8      25.776  43.691 137.011  0.00  0.00    -0.382 OA
ATOM     87  HG1 THR A   8      25.087  43.014 137.226  0.00  0.00    +0.210 HD
ENDBRANCH  84  86
ENDBRANCH  59  84
ENDBRANCH  57  59
ENDBRANCH  54  55
ENDBRANCH  52  54
ENDBRANCH  49  50
BRANCH  49  88
ATOM     88  CB  ASP A   6      21.877  49.043 137.818  0.00  0.00    +0.143 C 
BRANCH  88  89
ATOM     89  CG  ASP A   6      21.819  49.197 139.342  0.00  0.00    +0.367 C 
ATOM     90  OD2 ASP A   6      20.913  48.615 139.961  0.00  0.00    -0.246 OA
ATOM     91  OD1 ASP A   6      22.692  49.883 139.921  0.00  0.00    -0.246 OA
ENDBRANCH  88  89
ENDBRANCH  49  88
ENDBRANCH   2  49
TORSDOF 39
REMARK  Name = ../refined-set-2016/3gxy/3gxy_pocket.pdb
REMARK  115 active torsions:
REMARK  status: ('A' for Active; 'I' for Inactive)
REMARK    1  A    between atoms: _1  and  _5
REMARK    2  A    between atoms: _5  and  _6
REMARK    3  A    between atoms: _5  and  _8
REMARK    4  A    between atoms: _8  and  _9
REMARK    5  A    between atoms: _12  and  _14
REMARK    6  A    between atoms: _14  and  _15
REMARK    7  A    between atoms: _17  and  _19
REMARK    8  A    between atoms: _19  and  _20
REMARK    9  A    between atoms: _19  and  _22
REMARK   10  A    between atoms: _22  and  _23
REMARK   11  A    between atoms: _23  and  _24
REMARK   12  A    between atoms: _24  and  _25
REMARK   13  A    between atoms: _25  and  _26
REMARK   14  A    between atoms: _30  and  _32
REMARK   15  A    between atoms: _32  and  _33
REMARK   16  A    between atoms: _32  and  _35
REMARK   17  A    between atoms: _35  and  _36
REMARK   18  A    between atoms: _42  and  _44
REMARK   19  A    between atoms: _44  and  _45
REMARK   20  A    between atoms: _44  and  _47
REMARK   21  A    between atoms: _47  and  _48
REMARK   22  A    between atoms: _50  and  _52
REMARK   23  A    between atoms: _52  and  _53
REMARK   24  A    between atoms: _52  and  _55
REMARK   25  A    between atoms: _55  and  _56
REMARK   26  A    between atoms: _56  and  _57
REMARK   27  A    between atoms: _62  and  _64
REMARK   28  A    between atoms: _64  and  _65
REMARK   29  A    between atoms: _64  and  _67
REMARK   30  A    between atoms: _67  and  _68
REMARK   31  A    between atoms: _71  and  _73
REMARK   32  A    between atoms: _73  and  _74
REMARK   33  A    between atoms: _73  and  _76
REMARK   34  A    between atoms: _76  and  _77
REMARK   35  A    between atoms: _77  and  _84
REMARK   36  A    between atoms: _78  and  _80
REMARK   37  A    between atoms: _80  and  _81
REMARK   38  A    between atoms: _80  and  _83
REMARK   39  A    between atoms: _83  and  _84
REMARK   40  A    between atoms: _85  and  _87
REMARK   41  A    between atoms: _87  and  _88
REMARK   42  A    between atoms: _87  and  _90
REMARK   43  A    between atoms: _90  and  _91
REMARK   44  A    between atoms: _91  and  _92
REMARK   45  A    between atoms: _95  and  _97
REMARK   46  A    between atoms: _97  and  _98
REMARK   47  A    between atoms: _97  and  _100
REMARK   48  A    between atoms: _100  and  _101
REMARK   49  A    between atoms: _101  and  _102
REMARK   50  A    between atoms: _102  and  _103
REMARK   51  A    between atoms: _112  and  _114
REMARK   52  A    between atoms: _114  and  _115
REMARK   53  A    between atoms: _114  and  _117
REMARK   54  A    between atoms: _117  and  _118
REMARK   55  A    between atoms: _121  and  _123
REMARK   56  A    between atoms: _123  and  _124
REMARK   57  A    between atoms: _123  and  _126
REMARK   58  A    between atoms: _126  and  _127
REMARK   59  A    between atoms: _132  and  _134
REMARK   60  A    between atoms: _134  and  _135
REMARK   61  A    between atoms: _137  and  _139
REMARK   62  A    between atoms: _139  and  _140
REMARK   63  A    between atoms: _142  and  _144
REMARK   64  A    between atoms: _144  and  _145
REMARK   65  A    between atoms: _144  and  _147
REMARK   66  A    between atoms: _147  and  _148
REMARK   67  A    between atoms: _153  and  _154
REMARK   68  A    between atoms: _156  and  _158
REMARK   69  A    between atoms: _158  and  _159
REMARK   70  A    between atoms: _158  and  _161
REMARK   71  A    between atoms: _161  and  _162
REMARK   72  A    between atoms: _165  and  _167
REMARK   73  A    between atoms: _167  and  _168
REMARK   74  A    between atoms: _167  and  _170
REMARK   75  A    between atoms: _170  and  _171
REMARK   76  A    between atoms: _176  and  _178
REMARK   77  A    between atoms: _178  and  _179
REMARK   78  A    between atoms: _178  and  _181
REMARK   79  A    between atoms: _181  and  _182
REMARK   80  A    between atoms: _185  and  _187
REMARK   81  A    between atoms: _187  and  _188
REMARK   82  A    between atoms: _191  and  _193
REMARK   83  A    between atoms: _193  and  _194
REMARK   84  A    between atoms: _193  and  _196
REMARK   85  A    between atoms: _196  and  _197
REMARK   86  A    between atoms: _202  and  _204
REMARK   87  A    between atoms: _204  and  _205
REMARK   88  A    between atoms: _204  and  _207
REMARK   89  A    between atoms: _207  and  _208
REMARK   90  A    between atoms: _211  and  _213
REMARK   91  A    between atoms: _213  and  _214
REMARK   92  A    between atoms: _213  and  _216
REMARK   93  A    between atoms: _216  and  _217
REMARK   94  A    between atoms: _220  and  _222
REMARK   95  A    between atoms: _222  and  _223
REMARK   96  A    between atoms: _225  and  _227
REMARK   97  A    between atoms: _227  and  _228
REMARK   98  A    between atoms: _227  and  _230
REMARK   99  A    between atoms: _230  and  _231
REMARK  100  A    between atoms: _234  and  _236
REMARK  101  A    between atoms: _236  and  _237
REMARK  102  A    between atoms: _236  and  _239
REMARK  103  A    between atoms: _239  and  _240
REMARK  104  A    between atoms: _243  and  _245
REMARK  105  A    between atoms: _245  and  _246
REMARK  106  A    between atoms: _245  and  _248
REMARK  107  A    between atoms: _248  and  _249
REMARK  108  A    between atoms: _249  and  _250
REMARK  109  A    between atoms: _250  and  _251
REMARK  110  A    between atoms: _251  and  _252
REMARK  111  A    between atoms: _256  and  _258
REMARK  112  A    between atoms: _258  and  _259
REMARK  113  A    between atoms: _258  and  _261
REMARK  114  A    between atoms: _261  and  _262
REMARK  115  A    between atoms: _262  and  _263
REMARK                            x       y       z     vdW  Elec       q    Type
REMARK                         _______ _______ _______ _____ _____    ______ ____
ROOT
ATOM      1  CA  GLU A   1      22.389  45.714 124.035  0.00  0.00    +0.134 C 
ENDROOT
BRANCH   1   2
ATOM      2  N   GLU A   1      23.653  45.351 124.661  0.00  0.00    -0.239 NA
ATOM      3  H   GLU A   1      24.422  46.048 124.728  0.00  0.00    +0.142 HD
ENDBRANCH   1   2
BRANCH   1   4
ATOM      4  C   GLU A   1      22.809  46.487 122.811  0.00  0.00    +0.224 C 
ATOM      5  O   GLU A   1      22.119  46.463 121.837  0.00  0.00    -0.287 OA
ENDBRANCH   1   4
BRANCH   1   6
ATOM      6  CB  GLU A   1      21.618  46.624 124.952  0.00  0.00    +0.037 C 
BRANCH   6   7
ATOM      7  CG  GLU A   1      22.507  47.781 125.446  0.00  0.00    +0.116 C 
BRANCH   7   8
ATOM      8  CD  GLU A   1      21.782  48.739 126.440  0.00  0.00    +0.365 C 
ATOM      9  OE2 GLU A   1      20.967  48.252 127.276  0.00  0.00    -0.246 OA
ATOM     10  OE1 GLU A   1      22.045  49.969 126.381  0.00  0.00    -0.246 OA
ENDBRANCH   7   8
ENDBRANCH   6   7
ENDBRANCH   1   6
TORSDOF 5
REMARK  Name = ../refined-set-2016/3gxy/3gxy_pocket.pdb
REMARK  115 active torsions:
REMARK  status: ('A' for Active; 'I' for Inactive)
REMARK    1  A    between atoms: _1  and  _5
REMARK    2  A    between atoms: _5  and  _6
REMARK    3  A    between atoms: _5  and  _8
REMARK    4  A    between atoms: _8  and  _9
REMARK    5  A    between atoms: _12  and  _14
REMARK    6  A    between atoms: _14  and  _15
REMARK    7  A    between atoms: _17  and  _19
REMARK    8  A    between atoms: _19  and  _20
REMARK    9  A    between atoms: _19  and  _22
REMARK   10  A    between atoms: _22  and  _23
REMARK   11  A    between atoms: _23  and  _24
REMARK   12  A    between atoms: _24  and  _25
REMARK   13  A    between atoms: _25  and  _26
REMARK   14  A    between atoms: _30  and  _32
REMARK   15  A    between atoms: _32  and  _33
REMARK   16  A    between atoms: _32  and  _35
REMARK   17  A    between atoms: _35  and  _36
REMARK   18  A    between atoms: _42  and  _44
REMARK   19  A    between atoms: _44  and  _45
REMARK   20  A    between atoms: _44  and  _47
REMARK   21  A    between atoms: _47  and  _48
REMARK   22  A    between atoms: _50  and  _52
REMARK   23  A    between atoms: _52  and  _53
REMARK   24  A    between atoms: _52  and  _55
REMARK   25  A    between atoms: _55  and  _56
REMARK   26  A    between atoms: _56  and  _57
REMARK   27  A    between atoms: _62  and  _64
REMARK   28  A    between atoms: _64  and  _65
REMARK   29  A    between atoms: _64  and  _67
REMARK   30  A    between atoms: _67  and  _68
REMARK   31  A    between atoms: _71  and  _73
REMARK   32  A    between atoms: _73  and  _74
REMARK   33  A    between atoms: _73  and  _76
REMARK   34  A    between atoms: _76  and  _77
REMARK   35  A    between atoms: _77  and  _84
REMARK   36  A    between atoms: _78  and  _80
REMARK   37  A    between atoms: _80  and  _81
REMARK   38  A    between atoms: _80  and  _83
REMARK   39  A    between atoms: _83  and  _84
REMARK   40  A    between atoms: _85  and  _87
REMARK   41  A    between atoms: _87  and  _88
REMARK   42  A    between atoms: _87  and  _90
REMARK   43  A    between atoms: _90  and  _91
REMARK   44  A    between atoms: _91  and  _92
REMARK   45  A    between atoms: _95  and  _97
REMARK   46  A    between atoms: _97  and  _98
REMARK   47  A    between atoms: _97  and  _100
REMARK   48  A    between atoms: _100  and  _101
REMARK   49  A    between atoms: _101  and  _102
REMARK   50  A    between atoms: _102  and  _103
REMARK   51  A    between atoms: _112  and  _114
REMARK   52  A    between atoms: _114  and  _115
REMARK   53  A    between atoms: _114  and  _117
REMARK   54  A    between atoms: _117  and  _118
REMARK   55  A    between atoms: _121  and  _123
REMARK   56  A    between atoms: _123  and  _124
REMARK   57  A    between atoms: _123  and  _126
REMARK   58  A    between atoms: _126  and  _127
REMARK   59  A    between atoms: _132  and  _134
REMARK   60  A    between atoms: _134  and  _135
REMARK   61  A    between atoms: _137  and  _139
REMARK   62  A    between atoms: _139  and  _140
REMARK   63  A    between atoms: _142  and  _144
REMARK   64  A    between atoms: _144  and  _145
REMARK   65  A    between atoms: _144  and  _147
REMARK   66  A    between atoms: _147  and  _148
REMARK   67  A    between atoms: _153  and  _154
REMARK   68  A    between atoms: _156  and  _158
REMARK   69  A    between atoms: _158  and  _159
REMARK   70  A    between atoms: _158  and  _161
REMARK   71  A    between atoms: _161  and  _162
REMARK   72  A    between atoms: _165  and  _167
REMARK   73  A    between atoms: _167  and  _168
REMARK   74  A    between atoms: _167  and  _170
REMARK   75  A    between atoms: _170  and  _171
REMARK   76  A    between atoms: _176  and  _178
REMARK   77  A    between atoms: _178  and  _179
REMARK   78  A    between atoms: _178  and  _181
REMARK   79  A    between atoms: _181  and  _182
REMARK   80  A    between atoms: _185  and  _187
REMARK   81  A    between atoms: _187  and  _188
REMARK   82  A    between atoms: _191  and  _193
REMARK   83  A    between atoms: _193  and  _194
REMARK   84  A    between atoms: _193  and  _196
REMARK   85  A    between atoms: _196  and  _197
REMARK   86  A    between atoms: _202  and  _204
REMARK   87  A    between atoms: _204  and  _205
REMARK   88  A    between atoms: _204  and  _207
REMARK   89  A    between atoms: _207  and  _208
REMARK   90  A    between atoms: _211  and  _213
REMARK   91  A    between atoms: _213  and  _214
REMARK   92  A    between atoms: _213  and  _216
REMARK   93  A    between atoms: _216  and  _217
REMARK   94  A    between atoms: _220  and  _222
REMARK   95  A    between atoms: _222  and  _223
REMARK   96  A    between atoms: _225  and  _227
REMARK   97  A    between atoms: _227  and  _228
REMARK   98  A    between atoms: _227  and  _230
REMARK   99  A    between atoms: _230  and  _231
REMARK  100  A    between atoms: _234  and  _236
REMARK  101  A    between atoms: _236  and  _237
REMARK  102  A    between atoms: _236  and  _239
REMARK  103  A    between atoms: _239  and  _240
REMARK  104  A    between atoms: _243  and  _245
REMARK  105  A    between atoms: _245  and  _246
REMARK  106  A    between atoms: _245  and  _248
REMARK  107  A    between atoms: _248  and  _249
REMARK  108  A    between atoms: _249  and  _250
REMARK  109  A    between atoms: _250  and  _251
REMARK  110  A    between atoms: _251  and  _252
REMARK  111  A    between atoms: _256  and  _258
REMARK  112  A    between atoms: _258  and  _259
REMARK  113  A    between atoms: _258  and  _261
REMARK  114  A    between atoms: _261  and  _262
REMARK  115  A    between atoms: _262  and  _263
REMARK                            x       y       z     vdW  Elec       q    Type
REMARK                         _______ _______ _______ _____ _____    ______ ____
ROOT
ATOM      1  O   HOH     1      27.571  56.816 139.633  0.00  0.00    +0.000 OA
ENDROOT
TORSDOF 0
REMARK  Name = ../refined-set-2016/3gxy/3gxy_pocket.pdb
REMARK  115 active torsions:
REMARK  status: ('A' for Active; 'I' for Inactive)
REMARK    1  A    between atoms: _1  and  _5
REMARK    2  A    between atoms: _5  and  _6
REMARK    3  A    between atoms: _5  and  _8
REMARK    4  A    between atoms: _8  and  _9
REMARK    5  A    between atoms: _12  and  _14
REMARK    6  A    between atoms: _14  and  _15
REMARK    7  A    between atoms: _17  and  _19
REMARK    8  A    between atoms: _19  and  _20
REMARK    9  A    between atoms: _19  and  _22
REMARK   10  A    between atoms: _22  and  _23
REMARK   11  A    between atoms: _23  and  _24
REMARK   12  A    between atoms: _24  and  _25
REMARK   13  A    between atoms: _25  and  _26
REMARK   14  A    between atoms: _30  and  _32
REMARK   15  A    between atoms: _32  and  _33
REMARK   16  A    between atoms: _32  and  _35
REMARK   17  A    between atoms: _35  and  _36
REMARK   18  A    between atoms: _42  and  _44
REMARK   19  A    between atoms: _44  and  _45
REMARK   20  A    between atoms: _44  and  _47
REMARK   21  A    between atoms: _47  and  _48
REMARK   22  A    between atoms: _50  and  _52
REMARK   23  A    between atoms: _52  and  _53
REMARK   24  A    between atoms: _52  and  _55
REMARK   25  A    between atoms: _55  and  _56
REMARK   26  A    between atoms: _56  and  _57
REMARK   27  A    between atoms: _62  and  _64
REMARK   28  A    between atoms: _64  and  _65
REMARK   29  A    between atoms: _64  and  _67
REMARK   30  A    between atoms: _67  and  _68
REMARK   31  A    between atoms: _71  and  _73
REMARK   32  A    between atoms: _73  and  _74
REMARK   33  A    between atoms: _73  and  _76
REMARK   34  A    between atoms: _76  and  _77
REMARK   35  A    between atoms: _77  and  _84
REMARK   36  A    between atoms: _78  and  _80
REMARK   37  A    between atoms: _80  and  _81
REMARK   38  A    between atoms: _80  and  _83
REMARK   39  A    between atoms: _83  and  _84
REMARK   40  A    between atoms: _85  and  _87
REMARK   41  A    between atoms: _87  and  _88
REMARK   42  A    between atoms: _87  and  _90
REMARK   43  A    between atoms: _90  and  _91
REMARK   44  A    between atoms: _91  and  _92
REMARK   45  A    between atoms: _95  and  _97
REMARK   46  A    between atoms: _97  and  _98
REMARK   47  A    between atoms: _97  and  _100
REMARK   48  A    between atoms: _100  and  _101
REMARK   49  A    between atoms: _101  and  _102
REMARK   50  A    between atoms: _102  and  _103
REMARK   51  A    between atoms: _112  and  _114
REMARK   52  A    between atoms: _114  and  _115
REMARK   53  A    between atoms: _114  and  _117
REMARK   54  A    between atoms: _117  and  _118
REMARK   55  A    between atoms: _121  and  _123
REMARK   56  A    between atoms: _123  and  _124
REMARK   57  A    between atoms: _123  and  _126
REMARK   58  A    between atoms: _126  and  _127
REMARK   59  A    between atoms: _132  and  _134
REMARK   60  A    between atoms: _134  and  _135
REMARK   61  A    between atoms: _137  and  _139
REMARK   62  A    between atoms: _139  and  _140
REMARK   63  A    between atoms: _142  and  _144
REMARK   64  A    between atoms: _144  and  _145
REMARK   65  A    between atoms: _144  and  _147
REMARK   66  A    between atoms: _147  and  _148
REMARK   67  A    between atoms: _153  and  _154
REMARK   68  A    between atoms: _156  and  _158
REMARK   69  A    between atoms: _158  and  _159
REMARK   70  A    between atoms: _158  and  _161
REMARK   71  A    between atoms: _161  and  _162
REMARK   72  A    between atoms: _165  and  _167
REMARK   73  A    between atoms: _167  and  _168
REMARK   74  A    between atoms: _167  and  _170
REMARK   75  A    between atoms: _170  and  _171
REMARK   76  A    between atoms: _176  and  _178
REMARK   77  A    between atoms: _178  and  _179
REMARK   78  A    between atoms: _178  and  _181
REMARK   79  A    between atoms: _181  and  _182
REMARK   80  A    between atoms: _185  and  _187
REMARK   81  A    between atoms: _187  and  _188
REMARK   82  A    between atoms: _191  and  _193
REMARK   83  A    between atoms: _193  and  _194
REMARK   84  A    between atoms: _193  and  _196
REMARK   85  A    between atoms: _196  and  _197
REMARK   86  A    between atoms: _202  and  _204
REMARK   87  A    between atoms: _204  and  _205
REMARK   88  A    between atoms: _204  and  _207
REMARK   89  A    between atoms: _207  and  _208
REMARK   90  A    between atoms: _211  and  _213
REMARK   91  A    between atoms: _213  and  _214
REMARK   92  A    between atoms: _213  and  _216
REMARK   93  A    between atoms: _216  and  _217
REMARK   94  A    between atoms: _220  and  _222
REMARK   95  A    between atoms: _222  and  _223
REMARK   96  A    between atoms: _225  and  _227
REMARK   97  A    between atoms: _227  and  _228
REMARK   98  A    between atoms: _227  and  _230
REMARK   99  A    between atoms: _230  and  _231
REMARK  100  A    between atoms: _234  and  _236
REMARK  101  A    between atoms: _236  and  _237
REMARK  102  A    between atoms: _236  and  _239
REMARK  103  A    between atoms: _239  and  _240
REMARK  104  A    between atoms: _243  and  _245
REMARK  105  A    between atoms: _245  and  _246
REMARK  106  A    between atoms: _245  and  _248
REMARK  107  A    between atoms: _248  and  _249
REMARK  108  A    between atoms: _249  and  _250
REMARK  109  A    between atoms: _250  and  _251
REMARK  110  A    between atoms: _251  and  _252
REMARK  111  A    between atoms: _256  and  _258
REMARK  112  A    between atoms: _258  and  _259
REMARK  113  A    between atoms: _258  and  _261
REMARK  114  A    between atoms: _261  and  _262
REMARK  115  A    between atoms: _262  and  _263
REMARK                            x       y       z     vdW  Elec       q    Type
REMARK                         _______ _______ _______ _____ _____    ______ ____
ROOT
ATOM      1  O   HOH     1      24.482  56.378 141.737  0.00  0.00    +0.000 OA
ENDROOT
TORSDOF 0
REMARK  Name = ../refined-set-2016/3gxy/3gxy_pocket.pdb
REMARK  115 active torsions:
REMARK  status: ('A' for Active; 'I' for Inactive)
REMARK    1  A    between atoms: _1  and  _5
REMARK    2  A    between atoms: _5  and  _6
REMARK    3  A    between atoms: _5  and  _8
REMARK    4  A    between atoms: _8  and  _9
REMARK    5  A    between atoms: _12  and  _14
REMARK    6  A    between atoms: _14  and  _15
REMARK    7  A    between atoms: _17  and  _19
REMARK    8  A    between atoms: _19  and  _20
REMARK    9  A    between atoms: _19  and  _22
REMARK   10  A    between atoms: _22  and  _23
REMARK   11  A    between atoms: _23  and  _24
REMARK   12  A    between atoms: _24  and  _25
REMARK   13  A    between atoms: _25  and  _26
REMARK   14  A    between atoms: _30  and  _32
REMARK   15  A    between atoms: _32  and  _33
REMARK   16  A    between atoms: _32  and  _35
REMARK   17  A    between atoms: _35  and  _36
REMARK   18  A    between atoms: _42  and  _44
REMARK   19  A    between atoms: _44  and  _45
REMARK   20  A    between atoms: _44  and  _47
REMARK   21  A    between atoms: _47  and  _48
REMARK   22  A    between atoms: _50  and  _52
REMARK   23  A    between atoms: _52  and  _53
REMARK   24  A    between atoms: _52  and  _55
REMARK   25  A    between atoms: _55  and  _56
REMARK   26  A    between atoms: _56  and  _57
REMARK   27  A    between atoms: _62  and  _64
REMARK   28  A    between atoms: _64  and  _65
REMARK   29  A    between atoms: _64  and  _67
REMARK   30  A    between atoms: _67  and  _68
REMARK   31  A    between atoms: _71  and  _73
REMARK   32  A    between atoms: _73  and  _74
REMARK   33  A    between atoms: _73  and  _76
REMARK   34  A    between atoms: _76  and  _77
REMARK   35  A    between atoms: _77  and  _84
REMARK   36  A    between atoms: _78  and  _80
REMARK   37  A    between atoms: _80  and  _81
REMARK   38  A    between atoms: _80  and  _83
REMARK   39  A    between atoms: _83  and  _84
REMARK   40  A    between atoms: _85  and  _87
REMARK   41  A    between atoms: _87  and  _88
REMARK   42  A    between atoms: _87  and  _90
REMARK   43  A    between atoms: _90  and  _91
REMARK   44  A    between atoms: _91  and  _92
REMARK   45  A    between atoms: _95  and  _97
REMARK   46  A    between atoms: _97  and  _98
REMARK   47  A    between atoms: _97  and  _100
REMARK   48  A    between atoms: _100  and  _101
REMARK   49  A    between atoms: _101  and  _102
REMARK   50  A    between atoms: _102  and  _103
REMARK   51  A    between atoms: _112  and  _114
REMARK   52  A    between atoms: _114  and  _115
REMARK   53  A    between atoms: _114  and  _117
REMARK   54  A    between atoms: _117  and  _118
REMARK   55  A    between atoms: _121  and  _123
REMARK   56  A    between atoms: _123  and  _124
REMARK   57  A    between atoms: _123  and  _126
REMARK   58  A    between atoms: _126  and  _127
REMARK   59  A    between atoms: _132  and  _134
REMARK   60  A    between atoms: _134  and  _135
REMARK   61  A    between atoms: _137  and  _139
REMARK   62  A    between atoms: _139  and  _140
REMARK   63  A    between atoms: _142  and  _144
REMARK   64  A    between atoms: _144  and  _145
REMARK   65  A    between atoms: _144  and  _147
REMARK   66  A    between atoms: _147  and  _148
REMARK   67  A    between atoms: _153  and  _154
REMARK   68  A    between atoms: _156  and  _158
REMARK   69  A    between atoms: _158  and  _159
REMARK   70  A    between atoms: _158  and  _161
REMARK   71  A    between atoms: _161  and  _162
REMARK   72  A    between atoms: _165  and  _167
REMARK   73  A    between atoms: _167  and  _168
REMARK   74  A    between atoms: _167  and  _170
REMARK   75  A    between atoms: _170  and  _171
REMARK   76  A    between atoms: _176  and  _178
REMARK   77  A    between atoms: _178  and  _179
REMARK   78  A    between atoms: _178  and  _181
REMARK   79  A    between atoms: _181  and  _182
REMARK   80  A    between atoms: _185  and  _187
REMARK   81  A    between atoms: _187  and  _188
REMARK   82  A    between atoms: _191  and  _193
REMARK   83  A    between atoms: _193  and  _194
REMARK   84  A    between atoms: _193  and  _196
REMARK   85  A    between atoms: _196  and  _197
REMARK   86  A    between atoms: _202  and  _204
REMARK   87  A    between atoms: _204  and  _205
REMARK   88  A    between atoms: _204  and  _207
REMARK   89  A    between atoms: _207  and  _208
REMARK   90  A    between atoms: _211  and  _213
REMARK   91  A    between atoms: _213  and  _214
REMARK   92  A    between atoms: _213  and  _216
REMARK   93  A    between atoms: _216  and  _217
REMARK   94  A    between atoms: _220  and  _222
REMARK   95  A    between atoms: _222  and  _223
REMARK   96  A    between atoms: _225  and  _227
REMARK   97  A    between atoms: _227  and  _228
REMARK   98  A    between atoms: _227  and  _230
REMARK   99  A    between atoms: _230  and  _231
REMARK  100  A    between atoms: _234  and  _236
REMARK  101  A    between atoms: _236  and  _237
REMARK  102  A    between atoms: _236  and  _239
REMARK  103  A    between atoms: _239  and  _240
REMARK  104  A    between atoms: _243  and  _245
REMARK  105  A    between atoms: _245  and  _246
REMARK  106  A    between atoms: _245  and  _248
REMARK  107  A    between atoms: _248  and  _249
REMARK  108  A    between atoms: _249  and  _250
REMARK  109  A    between atoms: _250  and  _251
REMARK  110  A    between atoms: _251  and  _252
REMARK  111  A    between atoms: _256  and  _258
REMARK  112  A    between atoms: _258  and  _259
REMARK  113  A    between atoms: _258  and  _261
REMARK  114  A    between atoms: _261  and  _262
REMARK  115  A    between atoms: _262  and  _263
REMARK                            x       y       z     vdW  Elec       q    Type
REMARK                         _______ _______ _______ _____ _____    ______ ____
ROOT
ATOM      1  O   HOH     1      17.416  58.415 138.164  0.00  0.00    +0.000 OA
ENDROOT
TORSDOF 0
REMARK  Name = ../refined-set-2016/3gxy/3gxy_pocket.pdb
REMARK  115 active torsions:
REMARK  status: ('A' for Active; 'I' for Inactive)
REMARK    1  A    between atoms: _1  and  _5
REMARK    2  A    between atoms: _5  and  _6
REMARK    3  A    between atoms: _5  and  _8
REMARK    4  A    between atoms: _8  and  _9
REMARK    5  A    between atoms: _12  and  _14
REMARK    6  A    between atoms: _14  and  _15
REMARK    7  A    between atoms: _17  and  _19
REMARK    8  A    between atoms: _19  and  _20
REMARK    9  A    between atoms: _19  and  _22
REMARK   10  A    between atoms: _22  and  _23
REMARK   11  A    between atoms: _23  and  _24
REMARK   12  A    between atoms: _24  and  _25
REMARK   13  A    between atoms: _25  and  _26
REMARK   14  A    between atoms: _30  and  _32
REMARK   15  A    between atoms: _32  and  _33
REMARK   16  A    between atoms: _32  and  _35
REMARK   17  A    between atoms: _35  and  _36
REMARK   18  A    between atoms: _42  and  _44
REMARK   19  A    between atoms: _44  and  _45
REMARK   20  A    between atoms: _44  and  _47
REMARK   21  A    between atoms: _47  and  _48
REMARK   22  A    between atoms: _50  and  _52
REMARK   23  A    between atoms: _52  and  _53
REMARK   24  A    between atoms: _52  and  _55
REMARK   25  A    between atoms: _55  and  _56
REMARK   26  A    between atoms: _56  and  _57
REMARK   27  A    between atoms: _62  and  _64
REMARK   28  A    between atoms: _64  and  _65
REMARK   29  A    between atoms: _64  and  _67
REMARK   30  A    between atoms: _67  and  _68
REMARK   31  A    between atoms: _71  and  _73
REMARK   32  A    between atoms: _73  and  _74
REMARK   33  A    between atoms: _73  and  _76
REMARK   34  A    between atoms: _76  and  _77
REMARK   35  A    between atoms: _77  and  _84
REMARK   36  A    between atoms: _78  and  _80
REMARK   37  A    between atoms: _80  and  _81
REMARK   38  A    between atoms: _80  and  _83
REMARK   39  A    between atoms: _83  and  _84
REMARK   40  A    between atoms: _85  and  _87
REMARK   41  A    between atoms: _87  and  _88
REMARK   42  A    between atoms: _87  and  _90
REMARK   43  A    between atoms: _90  and  _91
REMARK   44  A    between atoms: _91  and  _92
REMARK   45  A    between atoms: _95  and  _97
REMARK   46  A    between atoms: _97  and  _98
REMARK   47  A    between atoms: _97  and  _100
REMARK   48  A    between atoms: _100  and  _101
REMARK   49  A    between atoms: _101  and  _102
REMARK   50  A    between atoms: _102  and  _103
REMARK   51  A    between atoms: _112  and  _114
REMARK   52  A    between atoms: _114  and  _115
REMARK   53  A    between atoms: _114  and  _117
REMARK   54  A    between atoms: _117  and  _118
REMARK   55  A    between atoms: _121  and  _123
REMARK   56  A    between atoms: _123  and  _124
REMARK   57  A    between atoms: _123  and  _126
REMARK   58  A    between atoms: _126  and  _127
REMARK   59  A    between atoms: _132  and  _134
REMARK   60  A    between atoms: _134  and  _135
REMARK   61  A    between atoms: _137  and  _139
REMARK   62  A    between atoms: _139  and  _140
REMARK   63  A    between atoms: _142  and  _144
REMARK   64  A    between atoms: _144  and  _145
REMARK   65  A    between atoms: _144  and  _147
REMARK   66  A    between atoms: _147  and  _148
REMARK   67  A    between atoms: _153  and  _154
REMARK   68  A    between atoms: _156  and  _158
REMARK   69  A    between atoms: _158  and  _159
REMARK   70  A    between atoms: _158  and  _161
REMARK   71  A    between atoms: _161  and  _162
REMARK   72  A    between atoms: _165  and  _167
REMARK   73  A    between atoms: _167  and  _168
REMARK   74  A    between atoms: _167  and  _170
REMARK   75  A    between atoms: _170  and  _171
REMARK   76  A    between atoms: _176  and  _178
REMARK   77  A    between atoms: _178  and  _179
REMARK   78  A    between atoms: _178  and  _181
REMARK   79  A    between atoms: _181  and  _182
REMARK   80  A    between atoms: _185  and  _187
REMARK   81  A    between atoms: _187  and  _188
REMARK   82  A    between atoms: _191  and  _193
REMARK   83  A    between atoms: _193  and  _194
REMARK   84  A    between atoms: _193  and  _196
REMARK   85  A    between atoms: _196  and  _197
REMARK   86  A    between atoms: _202  and  _204
REMARK   87  A    between atoms: _204  and  _205
REMARK   88  A    between atoms: _204  and  _207
REMARK   89  A    between atoms: _207  and  _208
REMARK   90  A    between atoms: _211  and  _213
REMARK   91  A    between atoms: _213  and  _214
REMARK   92  A    between atoms: _213  and  _216
REMARK   93  A    between atoms: _216  and  _217
REMARK   94  A    between atoms: _220  and  _222
REMARK   95  A    between atoms: _222  and  _223
REMARK   96  A    between atoms: _225  and  _227
REMARK   97  A    between atoms: _227  and  _228
REMARK   98  A    between atoms: _227  and  _230
REMARK   99  A    between atoms: _230  and  _231
REMARK  100  A    between atoms: _234  and  _236
REMARK  101  A    between atoms: _236  and  _237
REMARK  102  A    between atoms: _236  and  _239
REMARK  103  A    between atoms: _239  and  _240
REMARK  104  A    between atoms: _243  and  _245
REMARK  105  A    between atoms: _245  and  _246
REMARK  106  A    between atoms: _245  and  _248
REMARK  107  A    between atoms: _248  and  _249
REMARK  108  A    between atoms: _249  and  _250
REMARK  109  A    between atoms: _250  and  _251
REMARK  110  A    between atoms: _251  and  _252
REMARK  111  A    between atoms: _256  and  _258
REMARK  112  A    between atoms: _258  and  _259
REMARK  113  A    between atoms: _258  and  _261
REMARK  114  A    between atoms: _261  and  _262
REMARK  115  A    between atoms: _262  and  _263
REMARK                            x       y       z     vdW  Elec       q    Type
REMARK                         _______ _______ _______ _____ _____    ______ ____
ROOT
ATOM      1  O   HOH     1      19.853  46.651 138.591  0.00  0.00    +0.000 OA
ENDROOT
TORSDOF 0
REMARK  Name = ../refined-set-2016/3gxy/3gxy_pocket.pdb
REMARK  115 active torsions:
REMARK  status: ('A' for Active; 'I' for Inactive)
REMARK    1  A    between atoms: _1  and  _5
REMARK    2  A    between atoms: _5  and  _6
REMARK    3  A    between atoms: _5  and  _8
REMARK    4  A    between atoms: _8  and  _9
REMARK    5  A    between atoms: _12  and  _14
REMARK    6  A    between atoms: _14  and  _15
REMARK    7  A    between atoms: _17  and  _19
REMARK    8  A    between atoms: _19  and  _20
REMARK    9  A    between atoms: _19  and  _22
REMARK   10  A    between atoms: _22  and  _23
REMARK   11  A    between atoms: _23  and  _24
REMARK   12  A    between atoms: _24  and  _25
REMARK   13  A    between atoms: _25  and  _26
REMARK   14  A    between atoms: _30  and  _32
REMARK   15  A    between atoms: _32  and  _33
REMARK   16  A    between atoms: _32  and  _35
REMARK   17  A    between atoms: _35  and  _36
REMARK   18  A    between atoms: _42  and  _44
REMARK   19  A    between atoms: _44  and  _45
REMARK   20  A    between atoms: _44  and  _47
REMARK   21  A    between atoms: _47  and  _48
REMARK   22  A    between atoms: _50  and  _52
REMARK   23  A    between atoms: _52  and  _53
REMARK   24  A    between atoms: _52  and  _55
REMARK   25  A    between atoms: _55  and  _56
REMARK   26  A    between atoms: _56  and  _57
REMARK   27  A    between atoms: _62  and  _64
REMARK   28  A    between atoms: _64  and  _65
REMARK   29  A    between atoms: _64  and  _67
REMARK   30  A    between atoms: _67  and  _68
REMARK   31  A    between atoms: _71  and  _73
REMARK   32  A    between atoms: _73  and  _74
REMARK   33  A    between atoms: _73  and  _76
REMARK   34  A    between atoms: _76  and  _77
REMARK   35  A    between atoms: _77  and  _84
REMARK   36  A    between atoms: _78  and  _80
REMARK   37  A    between atoms: _80  and  _81
REMARK   38  A    between atoms: _80  and  _83
REMARK   39  A    between atoms: _83  and  _84
REMARK   40  A    between atoms: _85  and  _87
REMARK   41  A    between atoms: _87  and  _88
REMARK   42  A    between atoms: _87  and  _90
REMARK   43  A    between atoms: _90  and  _91
REMARK   44  A    between atoms: _91  and  _92
REMARK   45  A    between atoms: _95  and  _97
REMARK   46  A    between atoms: _97  and  _98
REMARK   47  A    between atoms: _97  and  _100
REMARK   48  A    between atoms: _100  and  _101
REMARK   49  A    between atoms: _101  and  _102
REMARK   50  A    between atoms: _102  and  _103
REMARK   51  A    between atoms: _112  and  _114
REMARK   52  A    between atoms: _114  and  _115
REMARK   53  A    between atoms: _114  and  _117
REMARK   54  A    between atoms: _117  and  _118
REMARK   55  A    between atoms: _121  and  _123
REMARK   56  A    between atoms: _123  and  _124
REMARK   57  A    between atoms: _123  and  _126
REMARK   58  A    between atoms: _126  and  _127
REMARK   59  A    between atoms: _132  and  _134
REMARK   60  A    between atoms: _134  and  _135
REMARK   61  A    between atoms: _137  and  _139
REMARK   62  A    between atoms: _139  and  _140
REMARK   63  A    between atoms: _142  and  _144
REMARK   64  A    between atoms: _144  and  _145
REMARK   65  A    between atoms: _144  and  _147
REMARK   66  A    between atoms: _147  and  _148
REMARK   67  A    between atoms: _153  and  _154
REMARK   68  A    between atoms: _156  and  _158
REMARK   69  A    between atoms: _158  and  _159
REMARK   70  A    between atoms: _158  and  _161
REMARK   71  A    between atoms: _161  and  _162
REMARK   72  A    between atoms: _165  and  _167
REMARK   73  A    between atoms: _167  and  _168
REMARK   74  A    between atoms: _167  and  _170
REMARK   75  A    between atoms: _170  and  _171
REMARK   76  A    between atoms: _176  and  _178
REMARK   77  A    between atoms: _178  and  _179
REMARK   78  A    between atoms: _178  and  _181
REMARK   79  A    between atoms: _181  and  _182
REMARK   80  A    between atoms: _185  and  _187
REMARK   81  A    between atoms: _187  and  _188
REMARK   82  A    between atoms: _191  and  _193
REMARK   83  A    between atoms: _193  and  _194
REMARK   84  A    between atoms: _193  and  _196
REMARK   85  A    between atoms: _196  and  _197
REMARK   86  A    between atoms: _202  and  _204
REMARK   87  A    between atoms: _204  and  _205
REMARK   88  A    between atoms: _204  and  _207
REMARK   89  A    between atoms: _207  and  _208
REMARK   90  A    between atoms: _211  and  _213
REMARK   91  A    between atoms: _213  and  _214
REMARK   92  A    between atoms: _213  and  _216
REMARK   93  A    between atoms: _216  and  _217
REMARK   94  A    between atoms: _220  and  _222
REMARK   95  A    between atoms: _222  and  _223
REMARK   96  A    between atoms: _225  and  _227
REMARK   97  A    between atoms: _227  and  _228
REMARK   98  A    between atoms: _227  and  _230
REMARK   99  A    between atoms: _230  and  _231
REMARK  100  A    between atoms: _234  and  _236
REMARK  101  A    between atoms: _236  and  _237
REMARK  102  A    between atoms: _236  and  _239
REMARK  103  A    between atoms: _239  and  _240
REMARK  104  A    between atoms: _243  and  _245
REMARK  105  A    between atoms: _245  and  _246
REMARK  106  A    between atoms: _245  and  _248
REMARK  107  A    between atoms: _248  and  _249
REMARK  108  A    between atoms: _249  and  _250
REMARK  109  A    between atoms: _250  and  _251
REMARK  110  A    between atoms: _251  and  _252
REMARK  111  A    between atoms: _256  and  _258
REMARK  112  A    between atoms: _258  and  _259
REMARK  113  A    between atoms: _258  and  _261
REMARK  114  A    between atoms: _261  and  _262
REMARK  115  A    between atoms: _262  and  _263
REMARK                            x       y       z     vdW  Elec       q    Type
REMARK                         _______ _______ _______ _____ _____    ______ ____
ROOT
ATOM      1  O   HOH     1      30.580  56.283 125.305  0.00  0.00    +0.000 OA
ENDROOT
TORSDOF 0
