REMARK  Name = ../refined-set-2016/3b67/3b67_pocket.pdb
REMARK  255 active torsions:
REMARK  status: ('A' for Active; 'I' for Inactive)
REMARK    1  A    between atoms: _1  and  _3
REMARK    2  A    between atoms: _3  and  _4
REMARK    3  A    between atoms: _3  and  _6
REMARK    4  A    between atoms: _9  and  _11
REMARK    5  A    between atoms: _11  and  _12
REMARK    6  A    between atoms: _15  and  _17
REMARK    7  A    between atoms: _17  and  _18
REMARK    8  A    between atoms: _17  and  _20
REMARK    9  A    between atoms: _20  and  _21
REMARK   10  A    between atoms: _24  and  _26
REMARK   11  A    between atoms: _26  and  _27
REMARK   12  A    between atoms: _26  and  _29
REMARK   13  A    between atoms: _29  and  _30
REMARK   14  A    between atoms: _33  and  _35
REMARK   15  A    between atoms: _35  and  _36
REMARK   16  A    between atoms: _35  and  _38
REMARK   17  A    between atoms: _38  and  _39
REMARK   18  A    between atoms: _41  and  _43
REMARK   19  A    between atoms: _43  and  _44
REMARK   20  A    between atoms: _43  and  _46
REMARK   21  A    between atoms: _46  and  _47
REMARK   22  A    between atoms: _49  and  _51
REMARK   23  A    between atoms: _51  and  _52
REMARK   24  A    between atoms: _51  and  _54
REMARK   25  A    between atoms: _54  and  _55
REMARK   26  A    between atoms: _58  and  _60
REMARK   27  A    between atoms: _60  and  _61
REMARK   28  A    between atoms: _60  and  _63
REMARK   29  A    between atoms: _63  and  _64
REMARK   30  A    between atoms: _69  and  _71
REMARK   31  A    between atoms: _71  and  _72
REMARK   32  A    between atoms: _71  and  _74
REMARK   33  A    between atoms: _74  and  _75
REMARK   34  A    between atoms: _75  and  _76
REMARK   35  A    between atoms: _79  and  _81
REMARK   36  A    between atoms: _81  and  _82
REMARK   37  A    between atoms: _81  and  _84
REMARK   38  A    between atoms: _84  and  _85
REMARK   39  A    between atoms: _88  and  _90
REMARK   40  A    between atoms: _90  and  _91
REMARK   41  A    between atoms: _93  and  _95
REMARK   42  A    between atoms: _95  and  _96
REMARK   43  A    between atoms: _95  and  _98
REMARK   44  A    between atoms: _98  and  _99
REMARK   45  A    between atoms: _99  and  _100
REMARK   46  A    between atoms: _103  and  _105
REMARK   47  A    between atoms: _105  and  _106
REMARK   48  A    between atoms: _105  and  _108
REMARK   49  A    between atoms: _108  and  _109
REMARK   50  A    between atoms: _109  and  _110
REMARK   51  A    between atoms: _110  and  _111
REMARK   52  A    between atoms: _120  and  _122
REMARK   53  A    between atoms: _122  and  _123
REMARK   54  A    between atoms: _122  and  _125
REMARK   55  A    between atoms: _125  and  _126
REMARK   56  A    between atoms: _126  and  _127
REMARK   57  A    between atoms: _132  and  _134
REMARK   58  A    between atoms: _134  and  _135
REMARK   59  A    between atoms: _134  and  _137
REMARK   60  A    between atoms: _137  and  _138
REMARK   61  A    between atoms: _141  and  _143
REMARK   62  A    between atoms: _143  and  _144
REMARK   63  A    between atoms: _143  and  _146
REMARK   64  A    between atoms: _149  and  _151
REMARK   65  A    between atoms: _151  and  _152
REMARK   66  A    between atoms: _151  and  _154
REMARK   67  A    between atoms: _154  and  _155
REMARK   68  A    between atoms: _158  and  _160
REMARK   69  A    between atoms: _160  and  _161
REMARK   70  A    between atoms: _160  and  _163
REMARK   71  A    between atoms: _163  and  _164
REMARK   72  A    between atoms: _164  and  _165
REMARK   73  A    between atoms: _170  and  _172
REMARK   74  A    between atoms: _172  and  _173
REMARK   75  A    between atoms: _172  and  _175
REMARK   76  A    between atoms: _175  and  _176
REMARK   77  A    between atoms: _181  and  _182
REMARK   78  A    between atoms: _184  and  _186
REMARK   79  A    between atoms: _186  and  _187
REMARK   80  A    between atoms: _186  and  _189
REMARK   81  A    between atoms: _189  and  _190
REMARK   82  A    between atoms: _192  and  _194
REMARK   83  A    between atoms: _194  and  _195
REMARK   84  A    between atoms: _194  and  _197
REMARK   85  A    between atoms: _197  and  _198
REMARK   86  A    between atoms: _208  and  _210
REMARK   87  A    between atoms: _210  and  _211
REMARK   88  A    between atoms: _210  and  _213
REMARK   89  A    between atoms: _213  and  _214
REMARK   90  A    between atoms: _214  and  _215
REMARK   91  A    between atoms: _217  and  _219
REMARK   92  A    between atoms: _219  and  _220
REMARK   93  A    between atoms: _222  and  _224
REMARK   94  A    between atoms: _224  and  _225
REMARK   95  A    between atoms: _224  and  _227
REMARK   96  A    between atoms: _227  and  _228
REMARK   97  A    between atoms: _231  and  _233
REMARK   98  A    between atoms: _233  and  _234
REMARK   99  A    between atoms: _233  and  _236
REMARK  100  A    between atoms: _236  and  _237
REMARK  101  A    between atoms: _237  and  _238
REMARK  102  A    between atoms: _240  and  _242
REMARK  103  A    between atoms: _242  and  _243
REMARK  104  A    between atoms: _242  and  _245
REMARK  105  A    between atoms: _248  and  _250
REMARK  106  A    between atoms: _250  and  _251
REMARK  107  A    between atoms: _250  and  _253
REMARK  108  A    between atoms: _253  and  _254
REMARK  109  A    between atoms: _260  and  _262
REMARK  110  A    between atoms: _262  and  _263
REMARK  111  A    between atoms: _266  and  _268
REMARK  112  A    between atoms: _268  and  _269
REMARK  113  A    between atoms: _268  and  _271
REMARK  114  A    between atoms: _271  and  _272
REMARK  115  A    between atoms: _272  and  _273
REMARK  116  A    between atoms: _275  and  _277
REMARK  117  A    between atoms: _277  and  _278
REMARK  118  A    between atoms: _280  and  _282
REMARK  119  A    between atoms: _282  and  _283
REMARK  120  A    between atoms: _282  and  _285
REMARK  121  A    between atoms: _285  and  _286
REMARK  122  A    between atoms: _296  and  _298
REMARK  123  A    between atoms: _298  and  _299
REMARK  124  A    between atoms: _298  and  _301
REMARK  125  A    between atoms: _301  and  _302
REMARK  126  A    between atoms: _302  and  _303
REMARK  127  A    between atoms: _303  and  _304
REMARK  128  A    between atoms: _313  and  _315
REMARK  129  A    between atoms: _315  and  _316
REMARK  130  A    between atoms: _315  and  _318
REMARK  131  A    between atoms: _318  and  _319
REMARK  132  A    between atoms: _321  and  _323
REMARK  133  A    between atoms: _323  and  _324
REMARK  134  A    between atoms: _323  and  _326
REMARK  135  A    between atoms: _326  and  _327
REMARK  136  A    between atoms: _330  and  _332
REMARK  137  A    between atoms: _332  and  _333
REMARK  138  A    between atoms: _332  and  _335
REMARK  139  A    between atoms: _335  and  _336
REMARK  140  A    between atoms: _341  and  _342
REMARK  141  A    between atoms: _344  and  _346
REMARK  142  A    between atoms: _346  and  _347
REMARK  143  A    between atoms: _346  and  _349
REMARK  144  A    between atoms: _349  and  _350
REMARK  145  A    between atoms: _356  and  _358
REMARK  146  A    between atoms: _358  and  _359
REMARK  147  A    between atoms: _362  and  _364
REMARK  148  A    between atoms: _364  and  _365
REMARK  149  A    between atoms: _364  and  _367
REMARK  150  A    between atoms: _367  and  _368
REMARK  151  A    between atoms: _371  and  _373
REMARK  152  A    between atoms: _373  and  _374
REMARK  153  A    between atoms: _373  and  _376
REMARK  154  A    between atoms: _376  and  _377
REMARK  155  A    between atoms: _377  and  _378
REMARK  156  A    between atoms: _380  and  _382
REMARK  157  A    between atoms: _382  and  _383
REMARK  158  A    between atoms: _382  and  _385
REMARK  159  A    between atoms: _385  and  _386
REMARK  160  A    between atoms: _386  and  _387
REMARK  161  A    between atoms: _392  and  _394
REMARK  162  A    between atoms: _394  and  _395
REMARK  163  A    between atoms: _394  and  _397
REMARK  164  A    between atoms: _399  and  _401
REMARK  165  A    between atoms: _401  and  _402
REMARK  166  A    between atoms: _401  and  _404
REMARK  167  A    between atoms: _404  and  _405
REMARK  168  A    between atoms: _405  and  _406
REMARK  169  A    between atoms: _408  and  _410
REMARK  170  A    between atoms: _410  and  _411
REMARK  171  A    between atoms: _410  and  _413
REMARK  172  A    between atoms: _413  and  _414
REMARK  173  A    between atoms: _417  and  _419
REMARK  174  A    between atoms: _419  and  _420
REMARK  175  A    between atoms: _423  and  _425
REMARK  176  A    between atoms: _425  and  _426
REMARK  177  A    between atoms: _425  and  _428
REMARK  178  A    between atoms: _428  and  _429
REMARK  179  A    between atoms: _432  and  _434
REMARK  180  A    between atoms: _434  and  _435
REMARK  181  A    between atoms: _434  and  _437
REMARK  182  A    between atoms: _437  and  _438
REMARK  183  A    between atoms: _443  and  _445
REMARK  184  A    between atoms: _445  and  _446
REMARK  185  A    between atoms: _445  and  _448
REMARK  186  A    between atoms: _448  and  _449
REMARK  187  A    between atoms: _455  and  _457
REMARK  188  A    between atoms: _457  and  _458
REMARK  189  A    between atoms: _457  and  _460
REMARK  190  A    between atoms: _460  and  _461
REMARK  191  A    between atoms: _464  and  _466
REMARK  192  A    between atoms: _466  and  _467
REMARK  193  A    between atoms: _466  and  _469
REMARK  194  A    between atoms: _469  and  _470
REMARK  195  A    between atoms: _476  and  _478
REMARK  196  A    between atoms: _478  and  _479
REMARK  197  A    between atoms: _478  and  _481
REMARK  198  A    between atoms: _481  and  _482
REMARK  199  A    between atoms: _485  and  _487
REMARK  200  A    between atoms: _487  and  _488
REMARK  201  A    between atoms: _487  and  _490
REMARK  202  A    between atoms: _490  and  _491
REMARK  203  A    between atoms: _494  and  _496
REMARK  204  A    between atoms: _496  and  _497
REMARK  205  A    between atoms: _496  and  _499
REMARK  206  A    between atoms: _502  and  _504
REMARK  207  A    between atoms: _504  and  _505
REMARK  208  A    between atoms: _504  and  _507
REMARK  209  A    between atoms: _507  and  _508
REMARK  210  A    between atoms: _511  and  _513
REMARK  211  A    between atoms: _513  and  _514
REMARK  212  A    between atoms: _513  and  _516
REMARK  213  A    between atoms: _516  and  _517
REMARK  214  A    between atoms: _524  and  _525
REMARK  215  A    between atoms: _530  and  _532
REMARK  216  A    between atoms: _532  and  _533
REMARK  217  A    between atoms: _532  and  _535
REMARK  218  A    between atoms: _535  and  _536
REMARK  219  A    between atoms: _536  and  _537
REMARK  220  A    between atoms: _539  and  _541
REMARK  221  A    between atoms: _541  and  _542
REMARK  222  A    between atoms: _541  and  _544
REMARK  223  A    between atoms: _544  and  _545
REMARK  224  A    between atoms: _545  and  _546
REMARK  225  A    between atoms: _548  and  _550
REMARK  226  A    between atoms: _550  and  _551
REMARK  227  A    between atoms: _554  and  _556
REMARK  228  A    between atoms: _556  and  _557
REMARK  229  A    between atoms: _556  and  _559
REMARK  230  A    between atoms: _559  and  _560
REMARK  231  A    between atoms: _560  and  _561
REMARK  232  A    between atoms: _564  and  _566
REMARK  233  A    between atoms: _566  and  _567
REMARK  234  A    between atoms: _566  and  _569
REMARK  235  A    between atoms: _569  and  _570
REMARK  236  A    between atoms: _573  and  _575
REMARK  237  A    between atoms: _575  and  _576
REMARK  238  A    between atoms: _575  and  _578
REMARK  239  A    between atoms: _578  and  _579
REMARK  240  A    between atoms: _582  and  _584
REMARK  241  A    between atoms: _584  and  _585
REMARK  242  A    between atoms: _584  and  _587
REMARK  243  A    between atoms: _587  and  _588
REMARK  244  A    between atoms: _590  and  _592
REMARK  245  A    between atoms: _592  and  _593
REMARK  246  A    between atoms: _592  and  _595
REMARK  247  A    between atoms: _595  and  _596
REMARK  248  A    between atoms: _596  and  _597
REMARK  249  A    between atoms: _602  and  _604
REMARK  250  A    between atoms: _604  and  _605
REMARK  251  A    between atoms: _604  and  _607
REMARK  252  A    between atoms: _610  and  _612
REMARK  253  A    between atoms: _612  and  _613
REMARK  254  A    between atoms: _612  and  _615
REMARK  255  A    between atoms: _615  and  _616
REMARK                            x       y       z     vdW  Elec       q    Type
REMARK                         _______ _______ _______ _____ _____    ______ ____
ROOT
ATOM      1  CA  VAL A   1      28.877  15.299   2.705  0.00  0.00    +0.133 C 
ENDROOT
BRANCH   1   2
ATOM      2  CB  VAL A   1      28.909  14.335   3.919  0.00  0.00    +0.023 C 
ATOM      3  CG2 VAL A   1      28.695  15.109   5.211  0.00  0.00    +0.002 C 
ATOM      4  CG1 VAL A   1      30.241  13.616   3.970  0.00  0.00    +0.002 C 
ENDBRANCH   1   2
BRANCH   1   5
ATOM      5  N   VAL A   1      27.615  16.021   2.613  0.00  0.00    -0.239 NA
ATOM      6  H   VAL A   1      26.741  15.500   2.399  0.00  0.00    +0.142 HD
ENDBRANCH   1   5
BRANCH   1   7
ATOM      7  C   VAL A   1      29.029  14.495   1.421  0.00  0.00    +0.224 C 
ATOM      8  O   VAL A   1      28.159  13.703   1.077  0.00  0.00    -0.287 OA
ENDBRANCH   1   7
TORSDOF 3
REMARK  Name = ../refined-set-2016/3b67/3b67_pocket.pdb
REMARK  255 active torsions:
REMARK  status: ('A' for Active; 'I' for Inactive)
REMARK    1  A    between atoms: _1  and  _3
REMARK    2  A    between atoms: _3  and  _4
REMARK    3  A    between atoms: _3  and  _6
REMARK    4  A    between atoms: _9  and  _11
REMARK    5  A    between atoms: _11  and  _12
REMARK    6  A    between atoms: _15  and  _17
REMARK    7  A    between atoms: _17  and  _18
REMARK    8  A    between atoms: _17  and  _20
REMARK    9  A    between atoms: _20  and  _21
REMARK   10  A    between atoms: _24  and  _26
REMARK   11  A    between atoms: _26  and  _27
REMARK   12  A    between atoms: _26  and  _29
REMARK   13  A    between atoms: _29  and  _30
REMARK   14  A    between atoms: _33  and  _35
REMARK   15  A    between atoms: _35  and  _36
REMARK   16  A    between atoms: _35  and  _38
REMARK   17  A    between atoms: _38  and  _39
REMARK   18  A    between atoms: _41  and  _43
REMARK   19  A    between atoms: _43  and  _44
REMARK   20  A    between atoms: _43  and  _46
REMARK   21  A    between atoms: _46  and  _47
REMARK   22  A    between atoms: _49  and  _51
REMARK   23  A    between atoms: _51  and  _52
REMARK   24  A    between atoms: _51  and  _54
REMARK   25  A    between atoms: _54  and  _55
REMARK   26  A    between atoms: _58  and  _60
REMARK   27  A    between atoms: _60  and  _61
REMARK   28  A    between atoms: _60  and  _63
REMARK   29  A    between atoms: _63  and  _64
REMARK   30  A    between atoms: _69  and  _71
REMARK   31  A    between atoms: _71  and  _72
REMARK   32  A    between atoms: _71  and  _74
REMARK   33  A    between atoms: _74  and  _75
REMARK   34  A    between atoms: _75  and  _76
REMARK   35  A    between atoms: _79  and  _81
REMARK   36  A    between atoms: _81  and  _82
REMARK   37  A    between atoms: _81  and  _84
REMARK   38  A    between atoms: _84  and  _85
REMARK   39  A    between atoms: _88  and  _90
REMARK   40  A    between atoms: _90  and  _91
REMARK   41  A    between atoms: _93  and  _95
REMARK   42  A    between atoms: _95  and  _96
REMARK   43  A    between atoms: _95  and  _98
REMARK   44  A    between atoms: _98  and  _99
REMARK   45  A    between atoms: _99  and  _100
REMARK   46  A    between atoms: _103  and  _105
REMARK   47  A    between atoms: _105  and  _106
REMARK   48  A    between atoms: _105  and  _108
REMARK   49  A    between atoms: _108  and  _109
REMARK   50  A    between atoms: _109  and  _110
REMARK   51  A    between atoms: _110  and  _111
REMARK   52  A    between atoms: _120  and  _122
REMARK   53  A    between atoms: _122  and  _123
REMARK   54  A    between atoms: _122  and  _125
REMARK   55  A    between atoms: _125  and  _126
REMARK   56  A    between atoms: _126  and  _127
REMARK   57  A    between atoms: _132  and  _134
REMARK   58  A    between atoms: _134  and  _135
REMARK   59  A    between atoms: _134  and  _137
REMARK   60  A    between atoms: _137  and  _138
REMARK   61  A    between atoms: _141  and  _143
REMARK   62  A    between atoms: _143  and  _144
REMARK   63  A    between atoms: _143  and  _146
REMARK   64  A    between atoms: _149  and  _151
REMARK   65  A    between atoms: _151  and  _152
REMARK   66  A    between atoms: _151  and  _154
REMARK   67  A    between atoms: _154  and  _155
REMARK   68  A    between atoms: _158  and  _160
REMARK   69  A    between atoms: _160  and  _161
REMARK   70  A    between atoms: _160  and  _163
REMARK   71  A    between atoms: _163  and  _164
REMARK   72  A    between atoms: _164  and  _165
REMARK   73  A    between atoms: _170  and  _172
REMARK   74  A    between atoms: _172  and  _173
REMARK   75  A    between atoms: _172  and  _175
REMARK   76  A    between atoms: _175  and  _176
REMARK   77  A    between atoms: _181  and  _182
REMARK   78  A    between atoms: _184  and  _186
REMARK   79  A    between atoms: _186  and  _187
REMARK   80  A    between atoms: _186  and  _189
REMARK   81  A    between atoms: _189  and  _190
REMARK   82  A    between atoms: _192  and  _194
REMARK   83  A    between atoms: _194  and  _195
REMARK   84  A    between atoms: _194  and  _197
REMARK   85  A    between atoms: _197  and  _198
REMARK   86  A    between atoms: _208  and  _210
REMARK   87  A    between atoms: _210  and  _211
REMARK   88  A    between atoms: _210  and  _213
REMARK   89  A    between atoms: _213  and  _214
REMARK   90  A    between atoms: _214  and  _215
REMARK   91  A    between atoms: _217  and  _219
REMARK   92  A    between atoms: _219  and  _220
REMARK   93  A    between atoms: _222  and  _224
REMARK   94  A    between atoms: _224  and  _225
REMARK   95  A    between atoms: _224  and  _227
REMARK   96  A    between atoms: _227  and  _228
REMARK   97  A    between atoms: _231  and  _233
REMARK   98  A    between atoms: _233  and  _234
REMARK   99  A    between atoms: _233  and  _236
REMARK  100  A    between atoms: _236  and  _237
REMARK  101  A    between atoms: _237  and  _238
REMARK  102  A    between atoms: _240  and  _242
REMARK  103  A    between atoms: _242  and  _243
REMARK  104  A    between atoms: _242  and  _245
REMARK  105  A    between atoms: _248  and  _250
REMARK  106  A    between atoms: _250  and  _251
REMARK  107  A    between atoms: _250  and  _253
REMARK  108  A    between atoms: _253  and  _254
REMARK  109  A    between atoms: _260  and  _262
REMARK  110  A    between atoms: _262  and  _263
REMARK  111  A    between atoms: _266  and  _268
REMARK  112  A    between atoms: _268  and  _269
REMARK  113  A    between atoms: _268  and  _271
REMARK  114  A    between atoms: _271  and  _272
REMARK  115  A    between atoms: _272  and  _273
REMARK  116  A    between atoms: _275  and  _277
REMARK  117  A    between atoms: _277  and  _278
REMARK  118  A    between atoms: _280  and  _282
REMARK  119  A    between atoms: _282  and  _283
REMARK  120  A    between atoms: _282  and  _285
REMARK  121  A    between atoms: _285  and  _286
REMARK  122  A    between atoms: _296  and  _298
REMARK  123  A    between atoms: _298  and  _299
REMARK  124  A    between atoms: _298  and  _301
REMARK  125  A    between atoms: _301  and  _302
REMARK  126  A    between atoms: _302  and  _303
REMARK  127  A    between atoms: _303  and  _304
REMARK  128  A    between atoms: _313  and  _315
REMARK  129  A    between atoms: _315  and  _316
REMARK  130  A    between atoms: _315  and  _318
REMARK  131  A    between atoms: _318  and  _319
REMARK  132  A    between atoms: _321  and  _323
REMARK  133  A    between atoms: _323  and  _324
REMARK  134  A    between atoms: _323  and  _326
REMARK  135  A    between atoms: _326  and  _327
REMARK  136  A    between atoms: _330  and  _332
REMARK  137  A    between atoms: _332  and  _333
REMARK  138  A    between atoms: _332  and  _335
REMARK  139  A    between atoms: _335  and  _336
REMARK  140  A    between atoms: _341  and  _342
REMARK  141  A    between atoms: _344  and  _346
REMARK  142  A    between atoms: _346  and  _347
REMARK  143  A    between atoms: _346  and  _349
REMARK  144  A    between atoms: _349  and  _350
REMARK  145  A    between atoms: _356  and  _358
REMARK  146  A    between atoms: _358  and  _359
REMARK  147  A    between atoms: _362  and  _364
REMARK  148  A    between atoms: _364  and  _365
REMARK  149  A    between atoms: _364  and  _367
REMARK  150  A    between atoms: _367  and  _368
REMARK  151  A    between atoms: _371  and  _373
REMARK  152  A    between atoms: _373  and  _374
REMARK  153  A    between atoms: _373  and  _376
REMARK  154  A    between atoms: _376  and  _377
REMARK  155  A    between atoms: _377  and  _378
REMARK  156  A    between atoms: _380  and  _382
REMARK  157  A    between atoms: _382  and  _383
REMARK  158  A    between atoms: _382  and  _385
REMARK  159  A    between atoms: _385  and  _386
REMARK  160  A    between atoms: _386  and  _387
REMARK  161  A    between atoms: _392  and  _394
REMARK  162  A    between atoms: _394  and  _395
REMARK  163  A    between atoms: _394  and  _397
REMARK  164  A    between atoms: _399  and  _401
REMARK  165  A    between atoms: _401  and  _402
REMARK  166  A    between atoms: _401  and  _404
REMARK  167  A    between atoms: _404  and  _405
REMARK  168  A    between atoms: _405  and  _406
REMARK  169  A    between atoms: _408  and  _410
REMARK  170  A    between atoms: _410  and  _411
REMARK  171  A    between atoms: _410  and  _413
REMARK  172  A    between atoms: _413  and  _414
REMARK  173  A    between atoms: _417  and  _419
REMARK  174  A    between atoms: _419  and  _420
REMARK  175  A    between atoms: _423  and  _425
REMARK  176  A    between atoms: _425  and  _426
REMARK  177  A    between atoms: _425  and  _428
REMARK  178  A    between atoms: _428  and  _429
REMARK  179  A    between atoms: _432  and  _434
REMARK  180  A    between atoms: _434  and  _435
REMARK  181  A    between atoms: _434  and  _437
REMARK  182  A    between atoms: _437  and  _438
REMARK  183  A    between atoms: _443  and  _445
REMARK  184  A    between atoms: _445  and  _446
REMARK  185  A    between atoms: _445  and  _448
REMARK  186  A    between atoms: _448  and  _449
REMARK  187  A    between atoms: _455  and  _457
REMARK  188  A    between atoms: _457  and  _458
REMARK  189  A    between atoms: _457  and  _460
REMARK  190  A    between atoms: _460  and  _461
REMARK  191  A    between atoms: _464  and  _466
REMARK  192  A    between atoms: _466  and  _467
REMARK  193  A    between atoms: _466  and  _469
REMARK  194  A    between atoms: _469  and  _470
REMARK  195  A    between atoms: _476  and  _478
REMARK  196  A    between atoms: _478  and  _479
REMARK  197  A    between atoms: _478  and  _481
REMARK  198  A    between atoms: _481  and  _482
REMARK  199  A    between atoms: _485  and  _487
REMARK  200  A    between atoms: _487  and  _488
REMARK  201  A    between atoms: _487  and  _490
REMARK  202  A    between atoms: _490  and  _491
REMARK  203  A    between atoms: _494  and  _496
REMARK  204  A    between atoms: _496  and  _497
REMARK  205  A    between atoms: _496  and  _499
REMARK  206  A    between atoms: _502  and  _504
REMARK  207  A    between atoms: _504  and  _505
REMARK  208  A    between atoms: _504  and  _507
REMARK  209  A    between atoms: _507  and  _508
REMARK  210  A    between atoms: _511  and  _513
REMARK  211  A    between atoms: _513  and  _514
REMARK  212  A    between atoms: _513  and  _516
REMARK  213  A    between atoms: _516  and  _517
REMARK  214  A    between atoms: _524  and  _525
REMARK  215  A    between atoms: _530  and  _532
REMARK  216  A    between atoms: _532  and  _533
REMARK  217  A    between atoms: _532  and  _535
REMARK  218  A    between atoms: _535  and  _536
REMARK  219  A    between atoms: _536  and  _537
REMARK  220  A    between atoms: _539  and  _541
REMARK  221  A    between atoms: _541  and  _542
REMARK  222  A    between atoms: _541  and  _544
REMARK  223  A    between atoms: _544  and  _545
REMARK  224  A    between atoms: _545  and  _546
REMARK  225  A    between atoms: _548  and  _550
REMARK  226  A    between atoms: _550  and  _551
REMARK  227  A    between atoms: _554  and  _556
REMARK  228  A    between atoms: _556  and  _557
REMARK  229  A    between atoms: _556  and  _559
REMARK  230  A    between atoms: _559  and  _560
REMARK  231  A    between atoms: _560  and  _561
REMARK  232  A    between atoms: _564  and  _566
REMARK  233  A    between atoms: _566  and  _567
REMARK  234  A    between atoms: _566  and  _569
REMARK  235  A    between atoms: _569  and  _570
REMARK  236  A    between atoms: _573  and  _575
REMARK  237  A    between atoms: _575  and  _576
REMARK  238  A    between atoms: _575  and  _578
REMARK  239  A    between atoms: _578  and  _579
REMARK  240  A    between atoms: _582  and  _584
REMARK  241  A    between atoms: _584  and  _585
REMARK  242  A    between atoms: _584  and  _587
REMARK  243  A    between atoms: _587  and  _588
REMARK  244  A    between atoms: _590  and  _592
REMARK  245  A    between atoms: _592  and  _593
REMARK  246  A    between atoms: _592  and  _595
REMARK  247  A    between atoms: _595  and  _596
REMARK  248  A    between atoms: _596  and  _597
REMARK  249  A    between atoms: _602  and  _604
REMARK  250  A    between atoms: _604  and  _605
REMARK  251  A    between atoms: _604  and  _607
REMARK  252  A    between atoms: _610  and  _612
REMARK  253  A    between atoms: _612  and  _613
REMARK  254  A    between atoms: _612  and  _615
REMARK  255  A    between atoms: _615  and  _616
REMARK                            x       y       z     vdW  Elec       q    Type
REMARK                         _______ _______ _______ _____ _____    ______ ____
ROOT
ATOM      1  CA  ALA A   1      32.002  10.625  -1.180  0.00  0.00    +0.133 C 
ATOM      2  CB  ALA A   1      31.187   9.445  -1.717  0.00  0.00    +0.027 C 
ENDROOT
BRANCH   1   3
ATOM      3  N   ALA A   1      31.204  11.850  -1.246  0.00  0.00    -0.239 NA
ATOM      4  H   ALA A   1      30.527  11.963  -2.027  0.00  0.00    +0.142 HD
ENDBRANCH   1   3
BRANCH   1   5
ATOM      5  C   ALA A   1      33.337  10.693  -1.908  0.00  0.00    +0.224 C 
ATOM      6  O   ALA A   1      34.249   9.919  -1.603  0.00  0.00    -0.287 OA
ENDBRANCH   1   5
TORSDOF 2
REMARK  Name = ../refined-set-2016/3b67/3b67_pocket.pdb
REMARK  255 active torsions:
REMARK  status: ('A' for Active; 'I' for Inactive)
REMARK    1  A    between atoms: _1  and  _3
REMARK    2  A    between atoms: _3  and  _4
REMARK    3  A    between atoms: _3  and  _6
REMARK    4  A    between atoms: _9  and  _11
REMARK    5  A    between atoms: _11  and  _12
REMARK    6  A    between atoms: _15  and  _17
REMARK    7  A    between atoms: _17  and  _18
REMARK    8  A    between atoms: _17  and  _20
REMARK    9  A    between atoms: _20  and  _21
REMARK   10  A    between atoms: _24  and  _26
REMARK   11  A    between atoms: _26  and  _27
REMARK   12  A    between atoms: _26  and  _29
REMARK   13  A    between atoms: _29  and  _30
REMARK   14  A    between atoms: _33  and  _35
REMARK   15  A    between atoms: _35  and  _36
REMARK   16  A    between atoms: _35  and  _38
REMARK   17  A    between atoms: _38  and  _39
REMARK   18  A    between atoms: _41  and  _43
REMARK   19  A    between atoms: _43  and  _44
REMARK   20  A    between atoms: _43  and  _46
REMARK   21  A    between atoms: _46  and  _47
REMARK   22  A    between atoms: _49  and  _51
REMARK   23  A    between atoms: _51  and  _52
REMARK   24  A    between atoms: _51  and  _54
REMARK   25  A    between atoms: _54  and  _55
REMARK   26  A    between atoms: _58  and  _60
REMARK   27  A    between atoms: _60  and  _61
REMARK   28  A    between atoms: _60  and  _63
REMARK   29  A    between atoms: _63  and  _64
REMARK   30  A    between atoms: _69  and  _71
REMARK   31  A    between atoms: _71  and  _72
REMARK   32  A    between atoms: _71  and  _74
REMARK   33  A    between atoms: _74  and  _75
REMARK   34  A    between atoms: _75  and  _76
REMARK   35  A    between atoms: _79  and  _81
REMARK   36  A    between atoms: _81  and  _82
REMARK   37  A    between atoms: _81  and  _84
REMARK   38  A    between atoms: _84  and  _85
REMARK   39  A    between atoms: _88  and  _90
REMARK   40  A    between atoms: _90  and  _91
REMARK   41  A    between atoms: _93  and  _95
REMARK   42  A    between atoms: _95  and  _96
REMARK   43  A    between atoms: _95  and  _98
REMARK   44  A    between atoms: _98  and  _99
REMARK   45  A    between atoms: _99  and  _100
REMARK   46  A    between atoms: _103  and  _105
REMARK   47  A    between atoms: _105  and  _106
REMARK   48  A    between atoms: _105  and  _108
REMARK   49  A    between atoms: _108  and  _109
REMARK   50  A    between atoms: _109  and  _110
REMARK   51  A    between atoms: _110  and  _111
REMARK   52  A    between atoms: _120  and  _122
REMARK   53  A    between atoms: _122  and  _123
REMARK   54  A    between atoms: _122  and  _125
REMARK   55  A    between atoms: _125  and  _126
REMARK   56  A    between atoms: _126  and  _127
REMARK   57  A    between atoms: _132  and  _134
REMARK   58  A    between atoms: _134  and  _135
REMARK   59  A    between atoms: _134  and  _137
REMARK   60  A    between atoms: _137  and  _138
REMARK   61  A    between atoms: _141  and  _143
REMARK   62  A    between atoms: _143  and  _144
REMARK   63  A    between atoms: _143  and  _146
REMARK   64  A    between atoms: _149  and  _151
REMARK   65  A    between atoms: _151  and  _152
REMARK   66  A    between atoms: _151  and  _154
REMARK   67  A    between atoms: _154  and  _155
REMARK   68  A    between atoms: _158  and  _160
REMARK   69  A    between atoms: _160  and  _161
REMARK   70  A    between atoms: _160  and  _163
REMARK   71  A    between atoms: _163  and  _164
REMARK   72  A    between atoms: _164  and  _165
REMARK   73  A    between atoms: _170  and  _172
REMARK   74  A    between atoms: _172  and  _173
REMARK   75  A    between atoms: _172  and  _175
REMARK   76  A    between atoms: _175  and  _176
REMARK   77  A    between atoms: _181  and  _182
REMARK   78  A    between atoms: _184  and  _186
REMARK   79  A    between atoms: _186  and  _187
REMARK   80  A    between atoms: _186  and  _189
REMARK   81  A    between atoms: _189  and  _190
REMARK   82  A    between atoms: _192  and  _194
REMARK   83  A    between atoms: _194  and  _195
REMARK   84  A    between atoms: _194  and  _197
REMARK   85  A    between atoms: _197  and  _198
REMARK   86  A    between atoms: _208  and  _210
REMARK   87  A    between atoms: _210  and  _211
REMARK   88  A    between atoms: _210  and  _213
REMARK   89  A    between atoms: _213  and  _214
REMARK   90  A    between atoms: _214  and  _215
REMARK   91  A    between atoms: _217  and  _219
REMARK   92  A    between atoms: _219  and  _220
REMARK   93  A    between atoms: _222  and  _224
REMARK   94  A    between atoms: _224  and  _225
REMARK   95  A    between atoms: _224  and  _227
REMARK   96  A    between atoms: _227  and  _228
REMARK   97  A    between atoms: _231  and  _233
REMARK   98  A    between atoms: _233  and  _234
REMARK   99  A    between atoms: _233  and  _236
REMARK  100  A    between atoms: _236  and  _237
REMARK  101  A    between atoms: _237  and  _238
REMARK  102  A    between atoms: _240  and  _242
REMARK  103  A    between atoms: _242  and  _243
REMARK  104  A    between atoms: _242  and  _245
REMARK  105  A    between atoms: _248  and  _250
REMARK  106  A    between atoms: _250  and  _251
REMARK  107  A    between atoms: _250  and  _253
REMARK  108  A    between atoms: _253  and  _254
REMARK  109  A    between atoms: _260  and  _262
REMARK  110  A    between atoms: _262  and  _263
REMARK  111  A    between atoms: _266  and  _268
REMARK  112  A    between atoms: _268  and  _269
REMARK  113  A    between atoms: _268  and  _271
REMARK  114  A    between atoms: _271  and  _272
REMARK  115  A    between atoms: _272  and  _273
REMARK  116  A    between atoms: _275  and  _277
REMARK  117  A    between atoms: _277  and  _278
REMARK  118  A    between atoms: _280  and  _282
REMARK  119  A    between atoms: _282  and  _283
REMARK  120  A    between atoms: _282  and  _285
REMARK  121  A    between atoms: _285  and  _286
REMARK  122  A    between atoms: _296  and  _298
REMARK  123  A    between atoms: _298  and  _299
REMARK  124  A    between atoms: _298  and  _301
REMARK  125  A    between atoms: _301  and  _302
REMARK  126  A    between atoms: _302  and  _303
REMARK  127  A    between atoms: _303  and  _304
REMARK  128  A    between atoms: _313  and  _315
REMARK  129  A    between atoms: _315  and  _316
REMARK  130  A    between atoms: _315  and  _318
REMARK  131  A    between atoms: _318  and  _319
REMARK  132  A    between atoms: _321  and  _323
REMARK  133  A    between atoms: _323  and  _324
REMARK  134  A    between atoms: _323  and  _326
REMARK  135  A    between atoms: _326  and  _327
REMARK  136  A    between atoms: _330  and  _332
REMARK  137  A    between atoms: _332  and  _333
REMARK  138  A    between atoms: _332  and  _335
REMARK  139  A    between atoms: _335  and  _336
REMARK  140  A    between atoms: _341  and  _342
REMARK  141  A    between atoms: _344  and  _346
REMARK  142  A    between atoms: _346  and  _347
REMARK  143  A    between atoms: _346  and  _349
REMARK  144  A    between atoms: _349  and  _350
REMARK  145  A    between atoms: _356  and  _358
REMARK  146  A    between atoms: _358  and  _359
REMARK  147  A    between atoms: _362  and  _364
REMARK  148  A    between atoms: _364  and  _365
REMARK  149  A    between atoms: _364  and  _367
REMARK  150  A    between atoms: _367  and  _368
REMARK  151  A    between atoms: _371  and  _373
REMARK  152  A    between atoms: _373  and  _374
REMARK  153  A    between atoms: _373  and  _376
REMARK  154  A    between atoms: _376  and  _377
REMARK  155  A    between atoms: _377  and  _378
REMARK  156  A    between atoms: _380  and  _382
REMARK  157  A    between atoms: _382  and  _383
REMARK  158  A    between atoms: _382  and  _385
REMARK  159  A    between atoms: _385  and  _386
REMARK  160  A    between atoms: _386  and  _387
REMARK  161  A    between atoms: _392  and  _394
REMARK  162  A    between atoms: _394  and  _395
REMARK  163  A    between atoms: _394  and  _397
REMARK  164  A    between atoms: _399  and  _401
REMARK  165  A    between atoms: _401  and  _402
REMARK  166  A    between atoms: _401  and  _404
REMARK  167  A    between atoms: _404  and  _405
REMARK  168  A    between atoms: _405  and  _406
REMARK  169  A    between atoms: _408  and  _410
REMARK  170  A    between atoms: _410  and  _411
REMARK  171  A    between atoms: _410  and  _413
REMARK  172  A    between atoms: _413  and  _414
REMARK  173  A    between atoms: _417  and  _419
REMARK  174  A    between atoms: _419  and  _420
REMARK  175  A    between atoms: _423  and  _425
REMARK  176  A    between atoms: _425  and  _426
REMARK  177  A    between atoms: _425  and  _428
REMARK  178  A    between atoms: _428  and  _429
REMARK  179  A    between atoms: _432  and  _434
REMARK  180  A    between atoms: _434  and  _435
REMARK  181  A    between atoms: _434  and  _437
REMARK  182  A    between atoms: _437  and  _438
REMARK  183  A    between atoms: _443  and  _445
REMARK  184  A    between atoms: _445  and  _446
REMARK  185  A    between atoms: _445  and  _448
REMARK  186  A    between atoms: _448  and  _449
REMARK  187  A    between atoms: _455  and  _457
REMARK  188  A    between atoms: _457  and  _458
REMARK  189  A    between atoms: _457  and  _460
REMARK  190  A    between atoms: _460  and  _461
REMARK  191  A    between atoms: _464  and  _466
REMARK  192  A    between atoms: _466  and  _467
REMARK  193  A    between atoms: _466  and  _469
REMARK  194  A    between atoms: _469  and  _470
REMARK  195  A    between atoms: _476  and  _478
REMARK  196  A    between atoms: _478  and  _479
REMARK  197  A    between atoms: _478  and  _481
REMARK  198  A    between atoms: _481  and  _482
REMARK  199  A    between atoms: _485  and  _487
REMARK  200  A    between atoms: _487  and  _488
REMARK  201  A    between atoms: _487  and  _490
REMARK  202  A    between atoms: _490  and  _491
REMARK  203  A    between atoms: _494  and  _496
REMARK  204  A    between atoms: _496  and  _497
REMARK  205  A    between atoms: _496  and  _499
REMARK  206  A    between atoms: _502  and  _504
REMARK  207  A    between atoms: _504  and  _505
REMARK  208  A    between atoms: _504  and  _507
REMARK  209  A    between atoms: _507  and  _508
REMARK  210  A    between atoms: _511  and  _513
REMARK  211  A    between atoms: _513  and  _514
REMARK  212  A    between atoms: _513  and  _516
REMARK  213  A    between atoms: _516  and  _517
REMARK  214  A    between atoms: _524  and  _525
REMARK  215  A    between atoms: _530  and  _532
REMARK  216  A    between atoms: _532  and  _533
REMARK  217  A    between atoms: _532  and  _535
REMARK  218  A    between atoms: _535  and  _536
REMARK  219  A    between atoms: _536  and  _537
REMARK  220  A    between atoms: _539  and  _541
REMARK  221  A    between atoms: _541  and  _542
REMARK  222  A    between atoms: _541  and  _544
REMARK  223  A    between atoms: _544  and  _545
REMARK  224  A    between atoms: _545  and  _546
REMARK  225  A    between atoms: _548  and  _550
REMARK  226  A    between atoms: _550  and  _551
REMARK  227  A    between atoms: _554  and  _556
REMARK  228  A    between atoms: _556  and  _557
REMARK  229  A    between atoms: _556  and  _559
REMARK  230  A    between atoms: _559  and  _560
REMARK  231  A    between atoms: _560  and  _561
REMARK  232  A    between atoms: _564  and  _566
REMARK  233  A    between atoms: _566  and  _567
REMARK  234  A    between atoms: _566  and  _569
REMARK  235  A    between atoms: _569  and  _570
REMARK  236  A    between atoms: _573  and  _575
REMARK  237  A    between atoms: _575  and  _576
REMARK  238  A    between atoms: _575  and  _578
REMARK  239  A    between atoms: _578  and  _579
REMARK  240  A    between atoms: _582  and  _584
REMARK  241  A    between atoms: _584  and  _585
REMARK  242  A    between atoms: _584  and  _587
REMARK  243  A    between atoms: _587  and  _588
REMARK  244  A    between atoms: _590  and  _592
REMARK  245  A    between atoms: _592  and  _593
REMARK  246  A    between atoms: _592  and  _595
REMARK  247  A    between atoms: _595  and  _596
REMARK  248  A    between atoms: _596  and  _597
REMARK  249  A    between atoms: _602  and  _604
REMARK  250  A    between atoms: _604  and  _605
REMARK  251  A    between atoms: _604  and  _607
REMARK  252  A    between atoms: _610  and  _612
REMARK  253  A    between atoms: _612  and  _613
REMARK  254  A    between atoms: _612  and  _615
REMARK  255  A    between atoms: _615  and  _616
REMARK                            x       y       z     vdW  Elec       q    Type
REMARK                         _______ _______ _______ _____ _____    ______ ____
ROOT
ATOM      1  C   GLU A   7      34.164   7.468   2.852  0.00  0.00    +0.241 C 
ATOM      2  O   GLU A   7      34.377   8.234   3.790  0.00  0.00    -0.273 OA
ATOM      3  N   LEU A   8      33.012   7.427   2.190  0.00  0.00    -0.297 N 
ATOM      4  H   LEU A   8      32.917   6.771   1.389  0.00  0.00    +0.150 HD
ENDROOT
BRANCH   1   5
ATOM      5  CA  GLU A   7      35.245   6.503   2.368  0.00  0.00    +0.149 C 
BRANCH   5   8
ATOM      6  C   ASN A   6      34.114   4.525   3.242  0.00  0.00    +0.241 C 
ATOM      7  O   ASN A   6      34.039   4.994   4.373  0.00  0.00    -0.273 OA
ATOM      8  N   GLU A   7      34.676   5.167   2.224  0.00  0.00    -0.297 N 
ATOM      9  H   GLU A   7      34.712   4.702   1.294  0.00  0.00    +0.150 HD
BRANCH   6  10
ATOM     10  CA  ASN A   6      33.558   3.143   2.936  0.00  0.00    +0.158 C 
BRANCH  10  13
ATOM     11  C   LEU A   5      31.597   3.819   1.630  0.00  0.00    +0.241 C 
ATOM     12  O   LEU A   5      31.084   4.393   2.583  0.00  0.00    -0.273 OA
ATOM     13  N   ASN A   6      32.773   3.189   1.697  0.00  0.00    -0.297 N 
ATOM     14  H   ASN A   6      33.143   2.718   0.847  0.00  0.00    +0.150 HD
BRANCH  11  15
ATOM     15  CA  LEU A   5      30.883   3.799   0.290  0.00  0.00    +0.149 C 
BRANCH  15  18
ATOM     16  C   SER A   4      32.541   5.013  -0.993  0.00  0.00    +0.243 C 
ATOM     17  O   SER A   4      32.407   6.001  -0.272  0.00  0.00    -0.273 OA
ATOM     18  N   LEU A   5      31.845   3.893  -0.805  0.00  0.00    -0.297 N 
ATOM     19  H   LEU A   5      31.987   3.082  -1.441  0.00  0.00    +0.150 HD
BRANCH  16  20
ATOM     20  CA  SER A   4      33.538   5.027  -2.153  0.00  0.00    +0.178 C 
BRANCH  20  23
ATOM     21  C   SER A   3      35.043   3.283  -1.442  0.00  0.00    +0.243 C 
ATOM     22  O   SER A   3      35.419   3.949  -0.486  0.00  0.00    -0.273 OA
ATOM     23  N   SER A   4      34.137   3.715  -2.312  0.00  0.00    -0.295 N 
ATOM     24  H   SER A   4      33.856   3.111  -3.110  0.00  0.00    +0.150 HD
BRANCH  21  25
ATOM     25  CA  SER A   3      35.593   1.894  -1.680  0.00  0.00    +0.178 C 
BRANCH  25  28
ATOM     26  C   LEU A   2      33.460   0.777  -1.424  0.00  0.00    +0.241 C 
ATOM     27  O   LEU A   2      33.365   1.138  -0.245  0.00  0.00    -0.273 OA
ATOM     28  N   SER A   3      34.504   1.076  -2.197  0.00  0.00    -0.295 N 
ATOM     29  H   SER A   3      34.541   0.723  -3.175  0.00  0.00    +0.150 HD
BRANCH  26  30
ATOM     30  CA  LEU A   2      32.364  -0.061  -2.057  0.00  0.00    +0.149 C 
BRANCH  30  33
ATOM     31  C   LEU A   1      31.766   1.382  -3.907  0.00  0.00    +0.238 C 
ATOM     32  O   LEU A   1      31.433   2.288  -3.134  0.00  0.00    -0.274 OA
ATOM     33  N   LEU A   2      32.230   0.211  -3.485  0.00  0.00    -0.297 N 
ATOM     34  H   LEU A   2      32.500  -0.517  -4.177  0.00  0.00    +0.150 HD
BRANCH  31  35
ATOM     35  CA  LEU A   1      31.654   1.563  -5.415  0.00  0.00    +0.145 C 
BRANCH  35  36
ATOM     36  N   LEU A   1      32.871   1.133  -6.098  0.00  0.00    -0.238 NA
ATOM     37  H   LEU A   1      32.829   0.313  -6.736  0.00  0.00    +0.142 HD
ENDBRANCH  35  36
BRANCH  35  38
ATOM     38  CB  LEU A   1      30.439   0.772  -5.936  0.00  0.00    +0.026 C 
BRANCH  38  39
ATOM     39  CG  LEU A   1      29.893   1.087  -7.339  0.00  0.00    +0.002 C 
ATOM     40  CD2 LEU A   1      29.311   2.492  -7.388  0.00  0.00    +0.000 C 
ATOM     41  CD1 LEU A   1      28.843   0.057  -7.716  0.00  0.00    +0.000 C 
ENDBRANCH  38  39
ENDBRANCH  35  38
ENDBRANCH  31  35
ENDBRANCH  30  33
BRANCH  30  42
ATOM     42  CB  LEU A   2      32.638  -1.549  -1.804  0.00  0.00    +0.029 C 
BRANCH  42  43
ATOM     43  CG  LEU A   2      31.409  -2.411  -1.491  0.00  0.00    +0.002 C 
ATOM     44  CD2 LEU A   2      30.719  -1.891  -0.219  0.00  0.00    +0.000 C 
ATOM     45  CD1 LEU A   2      30.444  -2.369  -2.674  0.00  0.00    +0.000 C 
ENDBRANCH  42  43
ENDBRANCH  30  42
ENDBRANCH  26  30
ENDBRANCH  25  28
BRANCH  25  46
ATOM     46  CB  SER A   3      36.751   1.962  -2.670  0.00  0.00    +0.166 C 
BRANCH  46  47
ATOM     47  OG  SER A   3      37.341   0.685  -2.827  0.00  0.00    -0.380 OA
ATOM     48  H   SER A   3      36.663   0.049  -3.166  0.00  0.00    +0.211 HD
ENDBRANCH  46  47
ENDBRANCH  25  46
ENDBRANCH  21  25
ENDBRANCH  20  23
BRANCH  20  49
ATOM     49  CB  SER A   4      32.851   5.455  -3.453  0.00  0.00    +0.166 C 
BRANCH  49  50
ATOM     50  OG  SER A   4      33.813   5.768  -4.450  0.00  0.00    -0.380 OA
ATOM     51  H   SER A   4      33.349   6.042  -5.280  0.00  0.00    +0.211 HD
ENDBRANCH  49  50
ENDBRANCH  20  49
ENDBRANCH  16  20
ENDBRANCH  15  18
BRANCH  15  52
ATOM     52  CB  LEU A   5      30.030   2.522   0.187  0.00  0.00    +0.029 C 
BRANCH  52  53
ATOM     53  CG  LEU A   5      28.772   2.583  -0.683  0.00  0.00    +0.002 C 
ATOM     54  CD2 LEU A   5      27.758   3.538  -0.058  0.00  0.00    +0.000 C 
ATOM     55  CD1 LEU A   5      28.186   1.191  -0.837  0.00  0.00    +0.000 C 
ENDBRANCH  52  53
ENDBRANCH  15  52
ENDBRANCH  11  15
ENDBRANCH  10  13
BRANCH  10  56
ATOM     56  CB  ASN A   6      34.733   2.153   2.828  0.00  0.00    +0.114 C 
BRANCH  56  57
ATOM     57  CG  ASN A   6      34.285   0.703   2.744  0.00  0.00    +0.222 C 
ATOM     58  OD1 ASN A   6      33.209   0.347   3.217  0.00  0.00    -0.275 OA
ATOM     59  ND2 ASN A   6      35.124  -0.145   2.158  0.00  0.00    -0.329 N 
ATOM     60 HD21 ASN A   6      34.879  -1.153   2.087  0.00  0.00    +0.145 HD
ATOM     61 HD22 ASN A   6      36.026   0.200   1.771  0.00  0.00    +0.145 HD
ENDBRANCH  56  57
ENDBRANCH  10  56
ENDBRANCH   6  10
ENDBRANCH   5   8
BRANCH   5  62
ATOM     62  CB  GLU A   7      35.809   6.981   1.022  0.00  0.00    +0.041 C 
BRANCH  62  63
ATOM     63  CG  GLU A   7      36.235   8.437   0.997  0.00  0.00    +0.116 C 
BRANCH  63  64
ATOM     64  CD  GLU A   7      37.376   8.737   1.950  0.00  0.00    +0.365 C 
ATOM     65  OE2 GLU A   7      38.070   7.789   2.379  0.00  0.00    -0.246 OA
ATOM     66  OE1 GLU A   7      37.580   9.927   2.265  0.00  0.00    -0.246 OA
ENDBRANCH  63  64
ENDBRANCH  62  63
ENDBRANCH   5  62
ENDBRANCH   1   5
BRANCH   3  67
ATOM     67  CA  LEU A   8      31.876   8.270   2.547  0.00  0.00    +0.149 C 
BRANCH  67  68
ATOM     68  C   LEU A   8      31.476   7.988   3.999  0.00  0.00    +0.241 C 
ATOM     69  O   LEU A   8      31.297   8.917   4.795  0.00  0.00    -0.273 OA
ATOM     70  N   GLY A   9      31.352   6.709   4.341  0.00  0.00    -0.295 N 
ATOM     71  H   GLY A   9      31.525   5.967   3.633  0.00  0.00    +0.150 HD
BRANCH  70  72
ATOM     72  CA  GLY A   9      30.977   6.339   5.694  0.00  0.00    +0.176 C 
BRANCH  72  73
ATOM     73  C   GLY A   9      31.884   6.978   6.725  0.00  0.00    +0.243 C 
ATOM     74  O   GLY A   9      31.424   7.466   7.761  0.00  0.00    -0.273 OA
ATOM     75  N   GLU A  10      33.178   6.975   6.428  0.00  0.00    -0.297 N 
ATOM     76  H   GLU A  10      33.479   6.537   5.534  0.00  0.00    +0.150 HD
BRANCH  75  77
ATOM     77  CA  GLU A  10      34.197   7.555   7.293  0.00  0.00    +0.149 C 
BRANCH  77  78
ATOM     78  C   GLU A  10      34.051   9.081   7.392  0.00  0.00    +0.241 C 
ATOM     79  O   GLU A  10      34.223   9.674   8.465  0.00  0.00    -0.273 OA
ATOM     80  N   ARG A  11      33.761   9.719   6.266  0.00  0.00    -0.297 N 
ATOM     81  H   ARG A  11      33.654   9.183   5.381  0.00  0.00    +0.150 HD
BRANCH  80  82
ATOM     82  CA  ARG A  11      33.592  11.162   6.260  0.00  0.00    +0.149 C 
BRANCH  82  83
ATOM     83  C   ARG A  11      32.353  11.509   7.077  0.00  0.00    +0.241 C 
ATOM     84  O   ARG A  11      32.355  12.466   7.855  0.00  0.00    -0.273 OA
ATOM     85  N   GLN A  12      31.306  10.707   6.910  0.00  0.00    -0.297 N 
ATOM     86  H   GLN A  12      31.381   9.910   6.246  0.00  0.00    +0.150 HD
BRANCH  85  87
ATOM     87  CA  GLN A  12      30.057  10.912   7.629  0.00  0.00    +0.149 C 
BRANCH  87  88
ATOM     88  C   GLN A  12      30.177  10.721   9.144  0.00  0.00    +0.241 C 
ATOM     89  O   GLN A  12      29.642  11.518   9.916  0.00  0.00    -0.273 OA
ATOM     90  N   LEU A  13      30.884   9.679   9.576  0.00  0.00    -0.298 N 
ATOM     91  H   LEU A  13      31.323   9.036   8.886  0.00  0.00    +0.150 HD
BRANCH  90  92
ATOM     92  CA  LEU A  13      31.052   9.426  11.003  0.00  0.00    +0.137 C 
BRANCH  92  93
ATOM     93  C   LEU A  13      31.589  10.659  11.738  0.00  0.00    +0.227 C 
ATOM     94  O   LEU A  13      31.167  10.959  12.861  0.00  0.00    -0.286 OA
ENDBRANCH  92  93
BRANCH  92  95
ATOM     95  CB  LEU A  13      31.997   8.239  11.230  0.00  0.00    +0.028 C 
BRANCH  95  96
ATOM     96  CG  LEU A  13      32.303   7.879  12.691  0.00  0.00    +0.002 C 
ATOM     97  CD2 LEU A  13      31.007   7.605  13.451  0.00  0.00    +0.000 C 
ATOM     98  CD1 LEU A  13      33.209   6.659  12.730  0.00  0.00    +0.000 C 
ENDBRANCH  95  96
ENDBRANCH  92  95
ENDBRANCH  90  92
ENDBRANCH  87  88
BRANCH  87  99
ATOM     99  CB  GLN A  12      28.972   9.994   7.039  0.00  0.00    +0.039 C 
BRANCH  99 100
ATOM    100  CG  GLN A  12      28.426  10.529   5.698  0.00  0.00    +0.087 C 
BRANCH 100 101
ATOM    101  CD  GLN A  12      27.473   9.578   4.991  0.00  0.00    +0.219 C 
ATOM    102  NE2 GLN A  12      27.616   8.290   5.254  0.00  0.00    -0.329 N 
ATOM    103 HE21 GLN A  12      28.344   7.974   5.927  0.00  0.00    +0.145 HD
ATOM    104 HE22 GLN A  12      27.001   7.593   4.788  0.00  0.00    +0.145 HD
ATOM    105  OE1 GLN A  12      26.627  10.002   4.203  0.00  0.00    -0.275 OA
ENDBRANCH 100 101
ENDBRANCH  99 100
ENDBRANCH  87  99
ENDBRANCH  85  87
ENDBRANCH  82  83
BRANCH  82 106
ATOM    106  CB  ARG A  11      33.453  11.674   4.826  0.00  0.00    +0.033 C 
BRANCH 106 107
ATOM    107  CG  ARG A  11      34.719  11.504   3.991  0.00  0.00    +0.045 C 
BRANCH 107 108
ATOM    108  CD  ARG A  11      34.550  12.111   2.606  0.00  0.00    +0.174 C 
BRANCH 108 109
ATOM    109  NE  ARG A  11      35.781  12.033   1.820  0.00  0.00    -0.265 N 
ATOM    110  HE  ARG A  11      36.596  11.545   2.243  0.00  0.00    +0.259 HD
ATOM    111  CZ  ARG A  11      35.928  12.544   0.600  0.00  0.00    +0.342 C 
ATOM    112  NH2 ARG A  11      34.924  13.176   0.011  0.00  0.00    -0.292 N 
ATOM    113 HH21 ARG A  11      34.013  13.276   0.502  0.00  0.00    +0.255 HD
ATOM    114 HH22 ARG A  11      35.047  13.573  -0.943  0.00  0.00    +0.255 HD
ATOM    115  NH1 ARG A  11      37.090  12.435  -0.031  0.00  0.00    -0.292 N 
ATOM    116 HH11 ARG A  11      37.887  11.950   0.428  0.00  0.00    +0.255 HD
ATOM    117 HH12 ARG A  11      37.204  12.835  -0.984  0.00  0.00    +0.255 HD
ENDBRANCH 108 109
ENDBRANCH 107 108
ENDBRANCH 106 107
ENDBRANCH  82 106
ENDBRANCH  80  82
ENDBRANCH  77  78
BRANCH  77 118
ATOM    118  CB  GLU A  10      35.586   7.223   6.744  0.00  0.00    +0.041 C 
BRANCH 118 119
ATOM    119  CG  GLU A  10      36.706   7.708   7.632  0.00  0.00    +0.116 C 
BRANCH 119 120
ATOM    120  CD  GLU A  10      37.362   6.582   8.401  0.00  0.00    +0.365 C 
ATOM    121  OE2 GLU A  10      36.642   5.751   9.001  0.00  0.00    -0.246 OA
ATOM    122  OE1 GLU A  10      38.609   6.529   8.403  0.00  0.00    -0.246 OA
ENDBRANCH 119 120
ENDBRANCH 118 119
ENDBRANCH  77 118
ENDBRANCH  75  77
ENDBRANCH  72  73
ENDBRANCH  70  72
ENDBRANCH  67  68
BRANCH  67 123
ATOM    123  CB  LEU A   8      30.690   7.986   1.609  0.00  0.00    +0.029 C 
BRANCH 123 124
ATOM    124  CG  LEU A   8      29.378   8.694   1.969  0.00  0.00    +0.002 C 
ATOM    125  CD2 LEU A   8      29.557  10.215   1.889  0.00  0.00    +0.000 C 
ATOM    126  CD1 LEU A   8      28.280   8.228   1.038  0.00  0.00    +0.000 C 
ENDBRANCH 123 124
ENDBRANCH  67 123
ENDBRANCH   3  67
TORSDOF 55
REMARK  Name = ../refined-set-2016/3b67/3b67_pocket.pdb
REMARK  255 active torsions:
REMARK  status: ('A' for Active; 'I' for Inactive)
REMARK    1  A    between atoms: _1  and  _3
REMARK    2  A    between atoms: _3  and  _4
REMARK    3  A    between atoms: _3  and  _6
REMARK    4  A    between atoms: _9  and  _11
REMARK    5  A    between atoms: _11  and  _12
REMARK    6  A    between atoms: _15  and  _17
REMARK    7  A    between atoms: _17  and  _18
REMARK    8  A    between atoms: _17  and  _20
REMARK    9  A    between atoms: _20  and  _21
REMARK   10  A    between atoms: _24  and  _26
REMARK   11  A    between atoms: _26  and  _27
REMARK   12  A    between atoms: _26  and  _29
REMARK   13  A    between atoms: _29  and  _30
REMARK   14  A    between atoms: _33  and  _35
REMARK   15  A    between atoms: _35  and  _36
REMARK   16  A    between atoms: _35  and  _38
REMARK   17  A    between atoms: _38  and  _39
REMARK   18  A    between atoms: _41  and  _43
REMARK   19  A    between atoms: _43  and  _44
REMARK   20  A    between atoms: _43  and  _46
REMARK   21  A    between atoms: _46  and  _47
REMARK   22  A    between atoms: _49  and  _51
REMARK   23  A    between atoms: _51  and  _52
REMARK   24  A    between atoms: _51  and  _54
REMARK   25  A    between atoms: _54  and  _55
REMARK   26  A    between atoms: _58  and  _60
REMARK   27  A    between atoms: _60  and  _61
REMARK   28  A    between atoms: _60  and  _63
REMARK   29  A    between atoms: _63  and  _64
REMARK   30  A    between atoms: _69  and  _71
REMARK   31  A    between atoms: _71  and  _72
REMARK   32  A    between atoms: _71  and  _74
REMARK   33  A    between atoms: _74  and  _75
REMARK   34  A    between atoms: _75  and  _76
REMARK   35  A    between atoms: _79  and  _81
REMARK   36  A    between atoms: _81  and  _82
REMARK   37  A    between atoms: _81  and  _84
REMARK   38  A    between atoms: _84  and  _85
REMARK   39  A    between atoms: _88  and  _90
REMARK   40  A    between atoms: _90  and  _91
REMARK   41  A    between atoms: _93  and  _95
REMARK   42  A    between atoms: _95  and  _96
REMARK   43  A    between atoms: _95  and  _98
REMARK   44  A    between atoms: _98  and  _99
REMARK   45  A    between atoms: _99  and  _100
REMARK   46  A    between atoms: _103  and  _105
REMARK   47  A    between atoms: _105  and  _106
REMARK   48  A    between atoms: _105  and  _108
REMARK   49  A    between atoms: _108  and  _109
REMARK   50  A    between atoms: _109  and  _110
REMARK   51  A    between atoms: _110  and  _111
REMARK   52  A    between atoms: _120  and  _122
REMARK   53  A    between atoms: _122  and  _123
REMARK   54  A    between atoms: _122  and  _125
REMARK   55  A    between atoms: _125  and  _126
REMARK   56  A    between atoms: _126  and  _127
REMARK   57  A    between atoms: _132  and  _134
REMARK   58  A    between atoms: _134  and  _135
REMARK   59  A    between atoms: _134  and  _137
REMARK   60  A    between atoms: _137  and  _138
REMARK   61  A    between atoms: _141  and  _143
REMARK   62  A    between atoms: _143  and  _144
REMARK   63  A    between atoms: _143  and  _146
REMARK   64  A    between atoms: _149  and  _151
REMARK   65  A    between atoms: _151  and  _152
REMARK   66  A    between atoms: _151  and  _154
REMARK   67  A    between atoms: _154  and  _155
REMARK   68  A    between atoms: _158  and  _160
REMARK   69  A    between atoms: _160  and  _161
REMARK   70  A    between atoms: _160  and  _163
REMARK   71  A    between atoms: _163  and  _164
REMARK   72  A    between atoms: _164  and  _165
REMARK   73  A    between atoms: _170  and  _172
REMARK   74  A    between atoms: _172  and  _173
REMARK   75  A    between atoms: _172  and  _175
REMARK   76  A    between atoms: _175  and  _176
REMARK   77  A    between atoms: _181  and  _182
REMARK   78  A    between atoms: _184  and  _186
REMARK   79  A    between atoms: _186  and  _187
REMARK   80  A    between atoms: _186  and  _189
REMARK   81  A    between atoms: _189  and  _190
REMARK   82  A    between atoms: _192  and  _194
REMARK   83  A    between atoms: _194  and  _195
REMARK   84  A    between atoms: _194  and  _197
REMARK   85  A    between atoms: _197  and  _198
REMARK   86  A    between atoms: _208  and  _210
REMARK   87  A    between atoms: _210  and  _211
REMARK   88  A    between atoms: _210  and  _213
REMARK   89  A    between atoms: _213  and  _214
REMARK   90  A    between atoms: _214  and  _215
REMARK   91  A    between atoms: _217  and  _219
REMARK   92  A    between atoms: _219  and  _220
REMARK   93  A    between atoms: _222  and  _224
REMARK   94  A    between atoms: _224  and  _225
REMARK   95  A    between atoms: _224  and  _227
REMARK   96  A    between atoms: _227  and  _228
REMARK   97  A    between atoms: _231  and  _233
REMARK   98  A    between atoms: _233  and  _234
REMARK   99  A    between atoms: _233  and  _236
REMARK  100  A    between atoms: _236  and  _237
REMARK  101  A    between atoms: _237  and  _238
REMARK  102  A    between atoms: _240  and  _242
REMARK  103  A    between atoms: _242  and  _243
REMARK  104  A    between atoms: _242  and  _245
REMARK  105  A    between atoms: _248  and  _250
REMARK  106  A    between atoms: _250  and  _251
REMARK  107  A    between atoms: _250  and  _253
REMARK  108  A    between atoms: _253  and  _254
REMARK  109  A    between atoms: _260  and  _262
REMARK  110  A    between atoms: _262  and  _263
REMARK  111  A    between atoms: _266  and  _268
REMARK  112  A    between atoms: _268  and  _269
REMARK  113  A    between atoms: _268  and  _271
REMARK  114  A    between atoms: _271  and  _272
REMARK  115  A    between atoms: _272  and  _273
REMARK  116  A    between atoms: _275  and  _277
REMARK  117  A    between atoms: _277  and  _278
REMARK  118  A    between atoms: _280  and  _282
REMARK  119  A    between atoms: _282  and  _283
REMARK  120  A    between atoms: _282  and  _285
REMARK  121  A    between atoms: _285  and  _286
REMARK  122  A    between atoms: _296  and  _298
REMARK  123  A    between atoms: _298  and  _299
REMARK  124  A    between atoms: _298  and  _301
REMARK  125  A    between atoms: _301  and  _302
REMARK  126  A    between atoms: _302  and  _303
REMARK  127  A    between atoms: _303  and  _304
REMARK  128  A    between atoms: _313  and  _315
REMARK  129  A    between atoms: _315  and  _316
REMARK  130  A    between atoms: _315  and  _318
REMARK  131  A    between atoms: _318  and  _319
REMARK  132  A    between atoms: _321  and  _323
REMARK  133  A    between atoms: _323  and  _324
REMARK  134  A    between atoms: _323  and  _326
REMARK  135  A    between atoms: _326  and  _327
REMARK  136  A    between atoms: _330  and  _332
REMARK  137  A    between atoms: _332  and  _333
REMARK  138  A    between atoms: _332  and  _335
REMARK  139  A    between atoms: _335  and  _336
REMARK  140  A    between atoms: _341  and  _342
REMARK  141  A    between atoms: _344  and  _346
REMARK  142  A    between atoms: _346  and  _347
REMARK  143  A    between atoms: _346  and  _349
REMARK  144  A    between atoms: _349  and  _350
REMARK  145  A    between atoms: _356  and  _358
REMARK  146  A    between atoms: _358  and  _359
REMARK  147  A    between atoms: _362  and  _364
REMARK  148  A    between atoms: _364  and  _365
REMARK  149  A    between atoms: _364  and  _367
REMARK  150  A    between atoms: _367  and  _368
REMARK  151  A    between atoms: _371  and  _373
REMARK  152  A    between atoms: _373  and  _374
REMARK  153  A    between atoms: _373  and  _376
REMARK  154  A    between atoms: _376  and  _377
REMARK  155  A    between atoms: _377  and  _378
REMARK  156  A    between atoms: _380  and  _382
REMARK  157  A    between atoms: _382  and  _383
REMARK  158  A    between atoms: _382  and  _385
REMARK  159  A    between atoms: _385  and  _386
REMARK  160  A    between atoms: _386  and  _387
REMARK  161  A    between atoms: _392  and  _394
REMARK  162  A    between atoms: _394  and  _395
REMARK  163  A    between atoms: _394  and  _397
REMARK  164  A    between atoms: _399  and  _401
REMARK  165  A    between atoms: _401  and  _402
REMARK  166  A    between atoms: _401  and  _404
REMARK  167  A    between atoms: _404  and  _405
REMARK  168  A    between atoms: _405  and  _406
REMARK  169  A    between atoms: _408  and  _410
REMARK  170  A    between atoms: _410  and  _411
REMARK  171  A    between atoms: _410  and  _413
REMARK  172  A    between atoms: _413  and  _414
REMARK  173  A    between atoms: _417  and  _419
REMARK  174  A    between atoms: _419  and  _420
REMARK  175  A    between atoms: _423  and  _425
REMARK  176  A    between atoms: _425  and  _426
REMARK  177  A    between atoms: _425  and  _428
REMARK  178  A    between atoms: _428  and  _429
REMARK  179  A    between atoms: _432  and  _434
REMARK  180  A    between atoms: _434  and  _435
REMARK  181  A    between atoms: _434  and  _437
REMARK  182  A    between atoms: _437  and  _438
REMARK  183  A    between atoms: _443  and  _445
REMARK  184  A    between atoms: _445  and  _446
REMARK  185  A    between atoms: _445  and  _448
REMARK  186  A    between atoms: _448  and  _449
REMARK  187  A    between atoms: _455  and  _457
REMARK  188  A    between atoms: _457  and  _458
REMARK  189  A    between atoms: _457  and  _460
REMARK  190  A    between atoms: _460  and  _461
REMARK  191  A    between atoms: _464  and  _466
REMARK  192  A    between atoms: _466  and  _467
REMARK  193  A    between atoms: _466  and  _469
REMARK  194  A    between atoms: _469  and  _470
REMARK  195  A    between atoms: _476  and  _478
REMARK  196  A    between atoms: _478  and  _479
REMARK  197  A    between atoms: _478  and  _481
REMARK  198  A    between atoms: _481  and  _482
REMARK  199  A    between atoms: _485  and  _487
REMARK  200  A    between atoms: _487  and  _488
REMARK  201  A    between atoms: _487  and  _490
REMARK  202  A    between atoms: _490  and  _491
REMARK  203  A    between atoms: _494  and  _496
REMARK  204  A    between atoms: _496  and  _497
REMARK  205  A    between atoms: _496  and  _499
REMARK  206  A    between atoms: _502  and  _504
REMARK  207  A    between atoms: _504  and  _505
REMARK  208  A    between atoms: _504  and  _507
REMARK  209  A    between atoms: _507  and  _508
REMARK  210  A    between atoms: _511  and  _513
REMARK  211  A    between atoms: _513  and  _514
REMARK  212  A    between atoms: _513  and  _516
REMARK  213  A    between atoms: _516  and  _517
REMARK  214  A    between atoms: _524  and  _525
REMARK  215  A    between atoms: _530  and  _532
REMARK  216  A    between atoms: _532  and  _533
REMARK  217  A    between atoms: _532  and  _535
REMARK  218  A    between atoms: _535  and  _536
REMARK  219  A    between atoms: _536  and  _537
REMARK  220  A    between atoms: _539  and  _541
REMARK  221  A    between atoms: _541  and  _542
REMARK  222  A    between atoms: _541  and  _544
REMARK  223  A    between atoms: _544  and  _545
REMARK  224  A    between atoms: _545  and  _546
REMARK  225  A    between atoms: _548  and  _550
REMARK  226  A    between atoms: _550  and  _551
REMARK  227  A    between atoms: _554  and  _556
REMARK  228  A    between atoms: _556  and  _557
REMARK  229  A    between atoms: _556  and  _559
REMARK  230  A    between atoms: _559  and  _560
REMARK  231  A    between atoms: _560  and  _561
REMARK  232  A    between atoms: _564  and  _566
REMARK  233  A    between atoms: _566  and  _567
REMARK  234  A    between atoms: _566  and  _569
REMARK  235  A    between atoms: _569  and  _570
REMARK  236  A    between atoms: _573  and  _575
REMARK  237  A    between atoms: _575  and  _576
REMARK  238  A    between atoms: _575  and  _578
REMARK  239  A    between atoms: _578  and  _579
REMARK  240  A    between atoms: _582  and  _584
REMARK  241  A    between atoms: _584  and  _585
REMARK  242  A    between atoms: _584  and  _587
REMARK  243  A    between atoms: _587  and  _588
REMARK  244  A    between atoms: _590  and  _592
REMARK  245  A    between atoms: _592  and  _593
REMARK  246  A    between atoms: _592  and  _595
REMARK  247  A    between atoms: _595  and  _596
REMARK  248  A    between atoms: _596  and  _597
REMARK  249  A    between atoms: _602  and  _604
REMARK  250  A    between atoms: _604  and  _605
REMARK  251  A    between atoms: _604  and  _607
REMARK  252  A    between atoms: _610  and  _612
REMARK  253  A    between atoms: _612  and  _613
REMARK  254  A    between atoms: _612  and  _615
REMARK  255  A    between atoms: _615  and  _616
REMARK                            x       y       z     vdW  Elec       q    Type
REMARK                         _______ _______ _______ _____ _____    ______ ____
ROOT
ATOM      1  CA  VAL A   1      27.713  12.114  13.236  0.00  0.00    +0.133 C 
ENDROOT
BRANCH   1   2
ATOM      2  CB  VAL A   1      27.538  10.597  12.958  0.00  0.00    +0.023 C 
ATOM      3  CG2 VAL A   1      26.649   9.980  14.009  0.00  0.00    +0.002 C 
ATOM      4  CG1 VAL A   1      26.914  10.384  11.585  0.00  0.00    +0.002 C 
ENDBRANCH   1   2
BRANCH   1   5
ATOM      5  N   VAL A   1      28.656  12.722  12.310  0.00  0.00    -0.239 NA
ATOM      6  H   VAL A   1      29.152  12.131  11.612  0.00  0.00    +0.142 HD
ENDBRANCH   1   5
BRANCH   1   7
ATOM      7  C   VAL A   1      28.202  12.320  14.669  0.00  0.00    +0.224 C 
ATOM      8  O   VAL A   1      27.415  12.612  15.574  0.00  0.00    -0.287 OA
ENDBRANCH   1   7
TORSDOF 3
REMARK  Name = ../refined-set-2016/3b67/3b67_pocket.pdb
REMARK  255 active torsions:
REMARK  status: ('A' for Active; 'I' for Inactive)
REMARK    1  A    between atoms: _1  and  _3
REMARK    2  A    between atoms: _3  and  _4
REMARK    3  A    between atoms: _3  and  _6
REMARK    4  A    between atoms: _9  and  _11
REMARK    5  A    between atoms: _11  and  _12
REMARK    6  A    between atoms: _15  and  _17
REMARK    7  A    between atoms: _17  and  _18
REMARK    8  A    between atoms: _17  and  _20
REMARK    9  A    between atoms: _20  and  _21
REMARK   10  A    between atoms: _24  and  _26
REMARK   11  A    between atoms: _26  and  _27
REMARK   12  A    between atoms: _26  and  _29
REMARK   13  A    between atoms: _29  and  _30
REMARK   14  A    between atoms: _33  and  _35
REMARK   15  A    between atoms: _35  and  _36
REMARK   16  A    between atoms: _35  and  _38
REMARK   17  A    between atoms: _38  and  _39
REMARK   18  A    between atoms: _41  and  _43
REMARK   19  A    between atoms: _43  and  _44
REMARK   20  A    between atoms: _43  and  _46
REMARK   21  A    between atoms: _46  and  _47
REMARK   22  A    between atoms: _49  and  _51
REMARK   23  A    between atoms: _51  and  _52
REMARK   24  A    between atoms: _51  and  _54
REMARK   25  A    between atoms: _54  and  _55
REMARK   26  A    between atoms: _58  and  _60
REMARK   27  A    between atoms: _60  and  _61
REMARK   28  A    between atoms: _60  and  _63
REMARK   29  A    between atoms: _63  and  _64
REMARK   30  A    between atoms: _69  and  _71
REMARK   31  A    between atoms: _71  and  _72
REMARK   32  A    between atoms: _71  and  _74
REMARK   33  A    between atoms: _74  and  _75
REMARK   34  A    between atoms: _75  and  _76
REMARK   35  A    between atoms: _79  and  _81
REMARK   36  A    between atoms: _81  and  _82
REMARK   37  A    between atoms: _81  and  _84
REMARK   38  A    between atoms: _84  and  _85
REMARK   39  A    between atoms: _88  and  _90
REMARK   40  A    between atoms: _90  and  _91
REMARK   41  A    between atoms: _93  and  _95
REMARK   42  A    between atoms: _95  and  _96
REMARK   43  A    between atoms: _95  and  _98
REMARK   44  A    between atoms: _98  and  _99
REMARK   45  A    between atoms: _99  and  _100
REMARK   46  A    between atoms: _103  and  _105
REMARK   47  A    between atoms: _105  and  _106
REMARK   48  A    between atoms: _105  and  _108
REMARK   49  A    between atoms: _108  and  _109
REMARK   50  A    between atoms: _109  and  _110
REMARK   51  A    between atoms: _110  and  _111
REMARK   52  A    between atoms: _120  and  _122
REMARK   53  A    between atoms: _122  and  _123
REMARK   54  A    between atoms: _122  and  _125
REMARK   55  A    between atoms: _125  and  _126
REMARK   56  A    between atoms: _126  and  _127
REMARK   57  A    between atoms: _132  and  _134
REMARK   58  A    between atoms: _134  and  _135
REMARK   59  A    between atoms: _134  and  _137
REMARK   60  A    between atoms: _137  and  _138
REMARK   61  A    between atoms: _141  and  _143
REMARK   62  A    between atoms: _143  and  _144
REMARK   63  A    between atoms: _143  and  _146
REMARK   64  A    between atoms: _149  and  _151
REMARK   65  A    between atoms: _151  and  _152
REMARK   66  A    between atoms: _151  and  _154
REMARK   67  A    between atoms: _154  and  _155
REMARK   68  A    between atoms: _158  and  _160
REMARK   69  A    between atoms: _160  and  _161
REMARK   70  A    between atoms: _160  and  _163
REMARK   71  A    between atoms: _163  and  _164
REMARK   72  A    between atoms: _164  and  _165
REMARK   73  A    between atoms: _170  and  _172
REMARK   74  A    between atoms: _172  and  _173
REMARK   75  A    between atoms: _172  and  _175
REMARK   76  A    between atoms: _175  and  _176
REMARK   77  A    between atoms: _181  and  _182
REMARK   78  A    between atoms: _184  and  _186
REMARK   79  A    between atoms: _186  and  _187
REMARK   80  A    between atoms: _186  and  _189
REMARK   81  A    between atoms: _189  and  _190
REMARK   82  A    between atoms: _192  and  _194
REMARK   83  A    between atoms: _194  and  _195
REMARK   84  A    between atoms: _194  and  _197
REMARK   85  A    between atoms: _197  and  _198
REMARK   86  A    between atoms: _208  and  _210
REMARK   87  A    between atoms: _210  and  _211
REMARK   88  A    between atoms: _210  and  _213
REMARK   89  A    between atoms: _213  and  _214
REMARK   90  A    between atoms: _214  and  _215
REMARK   91  A    between atoms: _217  and  _219
REMARK   92  A    between atoms: _219  and  _220
REMARK   93  A    between atoms: _222  and  _224
REMARK   94  A    between atoms: _224  and  _225
REMARK   95  A    between atoms: _224  and  _227
REMARK   96  A    between atoms: _227  and  _228
REMARK   97  A    between atoms: _231  and  _233
REMARK   98  A    between atoms: _233  and  _234
REMARK   99  A    between atoms: _233  and  _236
REMARK  100  A    between atoms: _236  and  _237
REMARK  101  A    between atoms: _237  and  _238
REMARK  102  A    between atoms: _240  and  _242
REMARK  103  A    between atoms: _242  and  _243
REMARK  104  A    between atoms: _242  and  _245
REMARK  105  A    between atoms: _248  and  _250
REMARK  106  A    between atoms: _250  and  _251
REMARK  107  A    between atoms: _250  and  _253
REMARK  108  A    between atoms: _253  and  _254
REMARK  109  A    between atoms: _260  and  _262
REMARK  110  A    between atoms: _262  and  _263
REMARK  111  A    between atoms: _266  and  _268
REMARK  112  A    between atoms: _268  and  _269
REMARK  113  A    between atoms: _268  and  _271
REMARK  114  A    between atoms: _271  and  _272
REMARK  115  A    between atoms: _272  and  _273
REMARK  116  A    between atoms: _275  and  _277
REMARK  117  A    between atoms: _277  and  _278
REMARK  118  A    between atoms: _280  and  _282
REMARK  119  A    between atoms: _282  and  _283
REMARK  120  A    between atoms: _282  and  _285
REMARK  121  A    between atoms: _285  and  _286
REMARK  122  A    between atoms: _296  and  _298
REMARK  123  A    between atoms: _298  and  _299
REMARK  124  A    between atoms: _298  and  _301
REMARK  125  A    between atoms: _301  and  _302
REMARK  126  A    between atoms: _302  and  _303
REMARK  127  A    between atoms: _303  and  _304
REMARK  128  A    between atoms: _313  and  _315
REMARK  129  A    between atoms: _315  and  _316
REMARK  130  A    between atoms: _315  and  _318
REMARK  131  A    between atoms: _318  and  _319
REMARK  132  A    between atoms: _321  and  _323
REMARK  133  A    between atoms: _323  and  _324
REMARK  134  A    between atoms: _323  and  _326
REMARK  135  A    between atoms: _326  and  _327
REMARK  136  A    between atoms: _330  and  _332
REMARK  137  A    between atoms: _332  and  _333
REMARK  138  A    between atoms: _332  and  _335
REMARK  139  A    between atoms: _335  and  _336
REMARK  140  A    between atoms: _341  and  _342
REMARK  141  A    between atoms: _344  and  _346
REMARK  142  A    between atoms: _346  and  _347
REMARK  143  A    between atoms: _346  and  _349
REMARK  144  A    between atoms: _349  and  _350
REMARK  145  A    between atoms: _356  and  _358
REMARK  146  A    between atoms: _358  and  _359
REMARK  147  A    between atoms: _362  and  _364
REMARK  148  A    between atoms: _364  and  _365
REMARK  149  A    between atoms: _364  and  _367
REMARK  150  A    between atoms: _367  and  _368
REMARK  151  A    between atoms: _371  and  _373
REMARK  152  A    between atoms: _373  and  _374
REMARK  153  A    between atoms: _373  and  _376
REMARK  154  A    between atoms: _376  and  _377
REMARK  155  A    between atoms: _377  and  _378
REMARK  156  A    between atoms: _380  and  _382
REMARK  157  A    between atoms: _382  and  _383
REMARK  158  A    between atoms: _382  and  _385
REMARK  159  A    between atoms: _385  and  _386
REMARK  160  A    between atoms: _386  and  _387
REMARK  161  A    between atoms: _392  and  _394
REMARK  162  A    between atoms: _394  and  _395
REMARK  163  A    between atoms: _394  and  _397
REMARK  164  A    between atoms: _399  and  _401
REMARK  165  A    between atoms: _401  and  _402
REMARK  166  A    between atoms: _401  and  _404
REMARK  167  A    between atoms: _404  and  _405
REMARK  168  A    between atoms: _405  and  _406
REMARK  169  A    between atoms: _408  and  _410
REMARK  170  A    between atoms: _410  and  _411
REMARK  171  A    between atoms: _410  and  _413
REMARK  172  A    between atoms: _413  and  _414
REMARK  173  A    between atoms: _417  and  _419
REMARK  174  A    between atoms: _419  and  _420
REMARK  175  A    between atoms: _423  and  _425
REMARK  176  A    between atoms: _425  and  _426
REMARK  177  A    between atoms: _425  and  _428
REMARK  178  A    between atoms: _428  and  _429
REMARK  179  A    between atoms: _432  and  _434
REMARK  180  A    between atoms: _434  and  _435
REMARK  181  A    between atoms: _434  and  _437
REMARK  182  A    between atoms: _437  and  _438
REMARK  183  A    between atoms: _443  and  _445
REMARK  184  A    between atoms: _445  and  _446
REMARK  185  A    between atoms: _445  and  _448
REMARK  186  A    between atoms: _448  and  _449
REMARK  187  A    between atoms: _455  and  _457
REMARK  188  A    between atoms: _457  and  _458
REMARK  189  A    between atoms: _457  and  _460
REMARK  190  A    between atoms: _460  and  _461
REMARK  191  A    between atoms: _464  and  _466
REMARK  192  A    between atoms: _466  and  _467
REMARK  193  A    between atoms: _466  and  _469
REMARK  194  A    between atoms: _469  and  _470
REMARK  195  A    between atoms: _476  and  _478
REMARK  196  A    between atoms: _478  and  _479
REMARK  197  A    between atoms: _478  and  _481
REMARK  198  A    between atoms: _481  and  _482
REMARK  199  A    between atoms: _485  and  _487
REMARK  200  A    between atoms: _487  and  _488
REMARK  201  A    between atoms: _487  and  _490
REMARK  202  A    between atoms: _490  and  _491
REMARK  203  A    between atoms: _494  and  _496
REMARK  204  A    between atoms: _496  and  _497
REMARK  205  A    between atoms: _496  and  _499
REMARK  206  A    between atoms: _502  and  _504
REMARK  207  A    between atoms: _504  and  _505
REMARK  208  A    between atoms: _504  and  _507
REMARK  209  A    between atoms: _507  and  _508
REMARK  210  A    between atoms: _511  and  _513
REMARK  211  A    between atoms: _513  and  _514
REMARK  212  A    between atoms: _513  and  _516
REMARK  213  A    between atoms: _516  and  _517
REMARK  214  A    between atoms: _524  and  _525
REMARK  215  A    between atoms: _530  and  _532
REMARK  216  A    between atoms: _532  and  _533
REMARK  217  A    between atoms: _532  and  _535
REMARK  218  A    between atoms: _535  and  _536
REMARK  219  A    between atoms: _536  and  _537
REMARK  220  A    between atoms: _539  and  _541
REMARK  221  A    between atoms: _541  and  _542
REMARK  222  A    between atoms: _541  and  _544
REMARK  223  A    between atoms: _544  and  _545
REMARK  224  A    between atoms: _545  and  _546
REMARK  225  A    between atoms: _548  and  _550
REMARK  226  A    between atoms: _550  and  _551
REMARK  227  A    between atoms: _554  and  _556
REMARK  228  A    between atoms: _556  and  _557
REMARK  229  A    between atoms: _556  and  _559
REMARK  230  A    between atoms: _559  and  _560
REMARK  231  A    between atoms: _560  and  _561
REMARK  232  A    between atoms: _564  and  _566
REMARK  233  A    between atoms: _566  and  _567
REMARK  234  A    between atoms: _566  and  _569
REMARK  235  A    between atoms: _569  and  _570
REMARK  236  A    between atoms: _573  and  _575
REMARK  237  A    between atoms: _575  and  _576
REMARK  238  A    between atoms: _575  and  _578
REMARK  239  A    between atoms: _578  and  _579
REMARK  240  A    between atoms: _582  and  _584
REMARK  241  A    between atoms: _584  and  _585
REMARK  242  A    between atoms: _584  and  _587
REMARK  243  A    between atoms: _587  and  _588
REMARK  244  A    between atoms: _590  and  _592
REMARK  245  A    between atoms: _592  and  _593
REMARK  246  A    between atoms: _592  and  _595
REMARK  247  A    between atoms: _595  and  _596
REMARK  248  A    between atoms: _596  and  _597
REMARK  249  A    between atoms: _602  and  _604
REMARK  250  A    between atoms: _604  and  _605
REMARK  251  A    between atoms: _604  and  _607
REMARK  252  A    between atoms: _610  and  _612
REMARK  253  A    between atoms: _612  and  _613
REMARK  254  A    between atoms: _612  and  _615
REMARK  255  A    between atoms: _615  and  _616
REMARK                            x       y       z     vdW  Elec       q    Type
REMARK                         _______ _______ _______ _____ _____    ______ ____
ROOT
ATOM      1  CA  MET A   9      22.743   6.963   8.389  0.00  0.00    +0.149 C 
ENDROOT
BRANCH   1   4
ATOM      2  C   LEU A   8      21.370   7.271  10.403  0.00  0.00    +0.241 C 
ATOM      3  O   LEU A   8      20.574   8.038   9.853  0.00  0.00    -0.273 OA
ATOM      4  N   MET A   9      22.414   6.718   9.787  0.00  0.00    -0.297 N 
ATOM      5  H   MET A   9      23.026   6.078  10.333  0.00  0.00    +0.150 HD
BRANCH   2   6
ATOM      6  CA  LEU A   8      21.207   6.893  11.868  0.00  0.00    +0.149 C 
BRANCH   6   8
ATOM      7  C   GLY A   7      20.486   4.609  11.467  0.00  0.00    +0.243 C 
ATOM      8  N   LEU A   8      21.338   5.454  12.035  0.00  0.00    -0.297 N 
ATOM      9  H   LEU A   8      22.117   5.078  12.613  0.00  0.00    +0.150 HD
ATOM     10  O   GLY A   7      19.520   4.986  10.797  0.00  0.00    -0.273 OA
BRANCH   7  11
ATOM     11  CA  GLY A   7      20.735   3.129  11.708  0.00  0.00    +0.176 C 
BRANCH  11  13
ATOM     12  C   MET A   6      22.924   2.970  10.701  0.00  0.00    +0.241 C 
ATOM     13  N   GLY A   7      22.140   2.772  11.756  0.00  0.00    -0.295 N 
ATOM     14  H   GLY A   7      22.537   2.358  12.623  0.00  0.00    +0.150 HD
ATOM     15  O   MET A   6      22.515   3.436   9.637  0.00  0.00    -0.273 OA
BRANCH  12  16
ATOM     16  CA  MET A   6      24.385   2.561  10.854  0.00  0.00    +0.149 C 
BRANCH  16  18
ATOM     17  C   TRP A   5      25.105   4.376  12.312  0.00  0.00    +0.241 C 
ATOM     18  N   MET A   6      25.040   3.073  12.060  0.00  0.00    -0.297 N 
ATOM     19  H   MET A   6      25.463   2.403  12.733  0.00  0.00    +0.150 HD
ATOM     20  O   TRP A   5      24.566   5.212  11.575  0.00  0.00    -0.273 OA
BRANCH  17  21
ATOM     21  CA  TRP A   5      25.841   4.824  13.590  0.00  0.00    +0.153 C 
BRANCH  21  23
ATOM     22  C   SER A   4      24.030   4.095  15.058  0.00  0.00    +0.243 C 
ATOM     23  N   TRP A   5      25.329   4.237  14.825  0.00  0.00    -0.297 N 
ATOM     24  H   TRP A   5      26.006   3.919  15.548  0.00  0.00    +0.150 HD
ATOM     25  O   SER A   4      23.167   4.427  14.247  0.00  0.00    -0.273 OA
BRANCH  22  26
ATOM     26  CA  SER A   4      23.638   3.478  16.403  0.00  0.00    +0.178 C 
BRANCH  26  28
ATOM     27  C   TYR A   3      25.198   1.679  16.913  0.00  0.00    +0.241 C 
ATOM     28  N   SER A   4      24.757   2.909  17.155  0.00  0.00    -0.295 N 
ATOM     29  H   SER A   4      25.216   3.479  17.894  0.00  0.00    +0.150 HD
ATOM     30  O   TYR A   3      24.717   0.964  16.032  0.00  0.00    -0.273 OA
BRANCH  27  31
ATOM     31  CA  TYR A   3      26.350   1.179  17.784  0.00  0.00    +0.153 C 
BRANCH  31  33
ATOM     32  C   GLN A   2      28.170   2.540  16.960  0.00  0.00    +0.241 C 
ATOM     33  N   TYR A   3      27.378   2.200  17.974  0.00  0.00    -0.297 N 
ATOM     34  H   TYR A   3      27.490   2.660  18.900  0.00  0.00    +0.150 HD
ATOM     35  O   GLN A   2      28.065   2.025  15.847  0.00  0.00    -0.273 OA
BRANCH  32  36
ATOM     36  CA  GLN A   2      29.224   3.620  17.209  0.00  0.00    +0.149 C 
BRANCH  36  38
ATOM     37  C   ILE A   1      27.862   5.558  17.691  0.00  0.00    +0.238 C 
ATOM     38  N   GLN A   2      28.755   4.671  18.102  0.00  0.00    -0.297 N 
ATOM     39  H   GLN A   2      29.125   4.725  19.072  0.00  0.00    +0.150 HD
ATOM     40  O   ILE A   1      27.365   5.535  16.557  0.00  0.00    -0.274 OA
BRANCH  37  41
ATOM     41  CA  ILE A   1      27.459   6.624  18.707  0.00  0.00    +0.145 C 
BRANCH  41  42
ATOM     42  CB  ILE A   1      28.526   7.731  18.716  0.00  0.00    +0.025 C 
ATOM     43  CG2 ILE A   1      29.000   8.000  17.306  0.00  0.00    +0.002 C 
BRANCH  42  44
ATOM     44  CG1 ILE A   1      27.947   8.998  19.352  0.00  0.00    +0.002 C 
ATOM     45  CD1 ILE A   1      28.962  10.101  19.634  0.00  0.00    +0.000 C 
ENDBRANCH  42  44
ENDBRANCH  41  42
BRANCH  41  46
ATOM     46  N   ILE A   1      27.279   6.068  20.039  0.00  0.00    -0.238 NA
ATOM     47  H   ILE A   1      27.924   6.355  20.803  0.00  0.00    +0.142 HD
ENDBRANCH  41  46
ENDBRANCH  37  41
ENDBRANCH  36  38
BRANCH  36  48
ATOM     48  CB  GLN A   2      30.509   3.008  17.769  0.00  0.00    +0.039 C 
BRANCH  48  49
ATOM     49  CG  GLN A   2      31.522   4.078  18.152  0.00  0.00    +0.087 C 
BRANCH  49  50
ATOM     50  CD  GLN A   2      32.867   3.521  18.567  0.00  0.00    +0.219 C 
ATOM     51  OE1 GLN A   2      32.950   2.578  19.353  0.00  0.00    -0.275 OA
ATOM     52  NE2 GLN A   2      33.931   4.116  18.051  0.00  0.00    -0.329 N 
ATOM     53 HE21 GLN A   2      34.885   3.789  18.307  0.00  0.00    +0.145 HD
ATOM     54 HE22 GLN A   2      33.813   4.910  17.390  0.00  0.00    +0.145 HD
ENDBRANCH  49  50
ENDBRANCH  48  49
ENDBRANCH  36  48
ENDBRANCH  32  36
ENDBRANCH  31  33
BRANCH  31  55
ATOM     55  CB  TYR A   3      25.770   0.711  19.122  0.00  0.00    +0.055 C 
BRANCH  55  56
ATOM     56  CG  TYR A   3      26.761   0.089  20.087  0.00  0.00    -0.020 A 
ATOM     57  CD2 TYR A   3      26.760   0.449  21.436  0.00  0.00    -0.001 A 
ATOM     58  CE2 TYR A   3      27.653  -0.129  22.347  0.00  0.00    +0.036 A 
ATOM     59  CZ  TYR A   3      28.557  -1.074  21.907  0.00  0.00    +0.134 A 
ATOM     60  CE1 TYR A   3      28.584  -1.453  20.566  0.00  0.00    +0.036 A 
ATOM     61  CD1 TYR A   3      27.683  -0.870  19.663  0.00  0.00    -0.001 A 
BRANCH  59  62
ATOM     62  OH  TYR A   3      29.423  -1.649  22.811  0.00  0.00    -0.506 OA
ATOM     63  HH  TYR A   3      30.002  -2.301  22.343  0.00  0.00    +0.292 HD
ENDBRANCH  59  62
ENDBRANCH  55  56
ENDBRANCH  31  55
ENDBRANCH  27  31
ENDBRANCH  26  28
BRANCH  26  64
ATOM     64  CB  SER A   4      22.935   4.535  17.256  0.00  0.00    +0.166 C 
BRANCH  64  65
ATOM     65  OG  SER A   4      23.779   5.652  17.447  0.00  0.00    -0.380 OA
ATOM     66  H   SER A   4      24.607   5.364  17.906  0.00  0.00    +0.211 HD
ENDBRANCH  64  65
ENDBRANCH  26  64
ENDBRANCH  22  26
ENDBRANCH  21  23
BRANCH  21  67
ATOM     67  CB  TRP A   5      27.352   4.543  13.511  0.00  0.00    +0.057 C 
BRANCH  67  68
ATOM     68  CG  TRP A   5      28.073   5.041  12.287  0.00  0.00    -0.002 A 
ATOM     69  CD2 TRP A   5      29.311   4.537  11.765  0.00  0.00    +0.013 A 
ATOM     70  CE3 TRP A   5      30.188   3.513  12.160  0.00  0.00    +0.001 A 
ATOM     71  CZ3 TRP A   5      31.333   3.279  11.399  0.00  0.00    +0.000 A 
ATOM     72  CH2 TRP A   5      31.612   4.051  10.255  0.00  0.00    +0.001 A 
ATOM     73  CZ2 TRP A   5      30.772   5.059   9.848  0.00  0.00    +0.017 A 
ATOM     74  CE2 TRP A   5      29.620   5.294  10.613  0.00  0.00    +0.056 A 
ATOM     75  NE1 TRP A   5      28.619   6.216  10.447  0.00  0.00    -0.352 N 
ATOM     76  HE1 TRP A   5      28.565   6.919   9.683  0.00  0.00    +0.166 HD
ATOM     77  CD1 TRP A   5      27.695   6.059  11.458  0.00  0.00    +0.068 A 
ENDBRANCH  67  68
ENDBRANCH  21  67
ENDBRANCH  17  21
ENDBRANCH  16  18
BRANCH  16  78
ATOM     78  CB  MET A   6      24.485   1.028  10.790  0.00  0.00    +0.041 C 
BRANCH  78  79
ATOM     79  CG  MET A   6      24.030   0.433   9.451  0.00  0.00    +0.060 C 
BRANCH  79  80
ATOM     80  SD  MET A   6      25.166   0.809   8.078  0.00  0.00    -0.139 S 
ATOM     81  CE  MET A   6      26.318  -0.599   8.218  0.00  0.00    +0.069 C 
ENDBRANCH  79  80
ENDBRANCH  78  79
ENDBRANCH  16  78
ENDBRANCH  12  16
ENDBRANCH  11  13
ENDBRANCH   7  11
ENDBRANCH   6   8
BRANCH   6  82
ATOM     82  CB  LEU A   8      22.265   7.617  12.701  0.00  0.00    +0.029 C 
BRANCH  82  83
ATOM     83  CG  LEU A   8      22.008   7.666  14.206  0.00  0.00    +0.002 C 
ATOM     84  CD2 LEU A   8      23.274   8.103  14.932  0.00  0.00    +0.000 C 
ATOM     85  CD1 LEU A   8      20.855   8.628  14.490  0.00  0.00    +0.000 C 
ENDBRANCH  82  83
ENDBRANCH   6  82
ENDBRANCH   2   6
ENDBRANCH   1   4
BRANCH   1  86
ATOM     86  C   MET A   9      21.653   6.452   7.466  0.00  0.00    +0.241 C 
ATOM     87  N   VAL A  10      21.201   5.236   7.723  0.00  0.00    -0.297 N 
ATOM     88  H   VAL A  10      21.607   4.702   8.518  0.00  0.00    +0.150 HD
ATOM     89  O   MET A   9      21.241   7.139   6.538  0.00  0.00    -0.273 OA
BRANCH  87  90
ATOM     90  CA  VAL A  10      20.155   4.628   6.927  0.00  0.00    +0.149 C 
BRANCH  90  91
ATOM     91  C   VAL A  10      18.945   5.549   6.892  0.00  0.00    +0.241 C 
ATOM     92  N   PHE A  11      18.582   6.045   8.068  0.00  0.00    -0.297 N 
ATOM     93  H   PHE A  11      19.142   5.799   8.909  0.00  0.00    +0.150 HD
ATOM     94  O   VAL A  10      18.366   5.808   5.832  0.00  0.00    -0.273 OA
BRANCH  92  95
ATOM     95  CA  PHE A  11      17.432   6.919   8.226  0.00  0.00    +0.153 C 
BRANCH  95  96
ATOM     96  C   PHE A  11      17.612   8.237   7.473  0.00  0.00    +0.241 C 
ATOM     97  N   ALA A  12      18.761   8.871   7.671  0.00  0.00    -0.297 N 
ATOM     98  H   ALA A  12      19.466   8.452   8.310  0.00  0.00    +0.150 HD
ATOM     99  O   PHE A  11      16.727   8.668   6.728  0.00  0.00    -0.273 OA
BRANCH  97 100
ATOM    100  CA  ALA A  12      19.061  10.140   7.016  0.00  0.00    +0.149 C 
ATOM    101  CB  ALA A  12      20.374  10.701   7.553  0.00  0.00    +0.031 C 
BRANCH 100 102
ATOM    102  C   ALA A  12      19.148   9.984   5.499  0.00  0.00    +0.241 C 
ATOM    103  N   MET A  13      19.809   8.921   5.051  0.00  0.00    -0.297 N 
ATOM    104  H   MET A  13      20.220   8.254   5.735  0.00  0.00    +0.150 HD
ATOM    105  O   ALA A  12      18.631  10.813   4.753  0.00  0.00    -0.273 OA
BRANCH 103 106
ATOM    106  CA  MET A  13      19.973   8.666   3.624  0.00  0.00    +0.149 C 
BRANCH 106 107
ATOM    107  C   MET A  13      18.611   8.439   2.974  0.00  0.00    +0.241 C 
ATOM    108  N   GLY A  14      17.705   7.796   3.712  0.00  0.00    -0.295 N 
ATOM    109  H   GLY A  14      17.956   7.473   4.668  0.00  0.00    +0.150 HD
ATOM    110  O   MET A  13      18.388   8.845   1.833  0.00  0.00    -0.273 OA
BRANCH 108 111
ATOM    111  CA  GLY A  14      16.370   7.541   3.194  0.00  0.00    +0.176 C 
BRANCH 111 112
ATOM    112  C   GLY A  14      15.620   8.851   3.004  0.00  0.00    +0.243 C 
ATOM    113  N   TRP A  15      15.758   9.741   3.982  0.00  0.00    -0.297 N 
ATOM    114  H   TRP A  15      16.344   9.502   4.807  0.00  0.00    +0.150 HD
ATOM    115  O   GLY A  14      14.926   9.059   2.001  0.00  0.00    -0.273 OA
BRANCH 113 116
ATOM    116  CA  TRP A  15      15.110  11.037   3.925  0.00  0.00    +0.153 C 
BRANCH 116 117
ATOM    117  C   TRP A  15      15.695  11.851   2.772  0.00  0.00    +0.241 C 
ATOM    118  N   ARG A  16      17.010  11.757   2.572  0.00  0.00    -0.297 N 
ATOM    119  H   ARG A  16      17.578  11.161   3.208  0.00  0.00    +0.150 HD
ATOM    120  O   TRP A  15      14.964  12.541   2.072  0.00  0.00    -0.273 OA
BRANCH 118 121
ATOM    121  CA  ARG A  16      17.675  12.472   1.479  0.00  0.00    +0.149 C 
BRANCH 121 122
ATOM    122  C   ARG A  16      17.180  11.962   0.129  0.00  0.00    +0.241 C 
ATOM    123  N   SER A  17      16.990  10.651   0.033  0.00  0.00    -0.296 N 
ATOM    124  H   SER A  17      17.191  10.048   0.856  0.00  0.00    +0.150 HD
ATOM    125  O   ARG A  16      17.001  12.734  -0.814  0.00  0.00    -0.273 OA
BRANCH 123 126
ATOM    126  CA  SER A  17      16.507  10.035  -1.196  0.00  0.00    +0.166 C 
BRANCH 126 127
ATOM    127  C   SER A  17      15.105  10.553  -1.468  0.00  0.00    +0.229 C 
ATOM    128  O   SER A  17      14.755  10.878  -2.605  0.00  0.00    -0.286 OA
ENDBRANCH 126 127
BRANCH 126 129
ATOM    129  CB  SER A  17      16.463   8.514  -1.050  0.00  0.00    +0.165 C 
BRANCH 129 130
ATOM    130  OG  SER A  17      17.762   7.956  -1.067  0.00  0.00    -0.380 OA
ATOM    131  H   SER A  17      18.290   8.329  -0.317  0.00  0.00    +0.211 HD
ENDBRANCH 129 130
ENDBRANCH 126 129
ENDBRANCH 123 126
ENDBRANCH 121 122
BRANCH 121 132
ATOM    132  CB  ARG A  16      19.193  12.284   1.543  0.00  0.00    +0.033 C 
BRANCH 132 133
ATOM    133  CG  ARG A  16      19.912  13.182   2.530  0.00  0.00    +0.045 C 
BRANCH 133 134
ATOM    134  CD  ARG A  16      21.395  13.309   2.157  0.00  0.00    +0.174 C 
BRANCH 134 135
ATOM    135  NE  ARG A  16      22.091  12.021   2.133  0.00  0.00    -0.265 N 
ATOM    136  CZ  ARG A  16      22.464  11.351   3.220  0.00  0.00    +0.342 C 
ATOM    137  NH2 ARG A  16      22.210  11.847   4.421  0.00  0.00    -0.292 N 
ATOM    138 HH21 ARG A  16      22.501  11.324   5.272  0.00  0.00    +0.255 HD
ATOM    139 HH22 ARG A  16      21.719  12.759   4.514  0.00  0.00    +0.255 HD
ATOM    140  NH1 ARG A  16      23.095  10.188   3.111  0.00  0.00    -0.292 N 
ATOM    141 HH11 ARG A  16      23.383   9.671   3.966  0.00  0.00    +0.255 HD
ATOM    142 HH12 ARG A  16      23.301   9.794   2.171  0.00  0.00    +0.255 HD
ATOM    143  HE  ARG A  16      22.308  11.603   1.206  0.00  0.00    +0.259 HD
ENDBRANCH 134 135
ENDBRANCH 133 134
ENDBRANCH 132 133
ENDBRANCH 121 132
ENDBRANCH 118 121
ENDBRANCH 116 117
BRANCH 116 144
ATOM    144  CB  TRP A  15      15.287  11.764   5.261  0.00  0.00    +0.057 C 
BRANCH 144 145
ATOM    145  CG  TRP A  15      14.821  13.184   5.255  0.00  0.00    -0.002 A 
ATOM    146  CD2 TRP A  15      13.474  13.644   5.397  0.00  0.00    +0.013 A 
ATOM    147  CE3 TRP A  15      12.241  13.001   5.565  0.00  0.00    +0.001 A 
ATOM    148  CZ3 TRP A  15      11.085  13.784   5.674  0.00  0.00    +0.000 A 
ATOM    149  CH2 TRP A  15      11.154  15.187   5.619  0.00  0.00    +0.001 A 
ATOM    150  CZ2 TRP A  15      12.353  15.840   5.454  0.00  0.00    +0.017 A 
ATOM    151  CE2 TRP A  15      13.507  15.054   5.343  0.00  0.00    +0.056 A 
ATOM    152  NE1 TRP A  15      14.814  15.427   5.173  0.00  0.00    -0.352 N 
ATOM    153  HE1 TRP A  15      15.159  16.405   5.097  0.00  0.00    +0.166 HD
ATOM    154  CD1 TRP A  15      15.594  14.297   5.119  0.00  0.00    +0.068 A 
ENDBRANCH 144 145
ENDBRANCH 116 144
ENDBRANCH 113 116
ENDBRANCH 111 112
ENDBRANCH 108 111
ENDBRANCH 106 107
BRANCH 106 155
ATOM    155  CB  MET A  13      20.887   7.447   3.412  0.00  0.00    +0.041 C 
BRANCH 155 156
ATOM    156  CG  MET A  13      21.349   7.225   1.971  0.00  0.00    +0.060 C 
BRANCH 156 157
ATOM    157  SD  MET A  13      20.128   6.429   0.901  0.00  0.00    -0.139 S 
ATOM    158  CE  MET A  13      20.341   4.726   1.325  0.00  0.00    +0.069 C 
ENDBRANCH 156 157
ENDBRANCH 155 156
ENDBRANCH 106 155
ENDBRANCH 103 106
ENDBRANCH 100 102
ENDBRANCH  97 100
ENDBRANCH  95  96
BRANCH  95 159
ATOM    159  CB  PHE A  11      17.208   7.185   9.716  0.00  0.00    +0.055 C 
BRANCH 159 160
ATOM    160  CG  PHE A  11      15.824   7.648  10.045  0.00  0.00    -0.020 A 
ATOM    161  CD2 PHE A  11      15.615   8.893  10.624  0.00  0.00    -0.004 A 
ATOM    162  CE2 PHE A  11      14.323   9.326  10.938  0.00  0.00    -0.000 A 
ATOM    163  CZ  PHE A  11      13.231   8.504  10.668  0.00  0.00    -0.000 A 
ATOM    164  CE1 PHE A  11      13.433   7.257  10.088  0.00  0.00    -0.000 A 
ATOM    165  CD1 PHE A  11      14.725   6.836   9.780  0.00  0.00    -0.004 A 
ENDBRANCH 159 160
ENDBRANCH  95 159
ENDBRANCH  92  95
ENDBRANCH  90  91
BRANCH  90 166
ATOM    166  CB  VAL A  10      19.732   3.267   7.523  0.00  0.00    +0.027 C 
ATOM    167  CG2 VAL A  10      20.834   2.252   7.318  0.00  0.00    +0.002 C 
ATOM    168  CG1 VAL A  10      18.442   2.780   6.873  0.00  0.00    +0.002 C 
ENDBRANCH  90 166
ENDBRANCH  87  90
ENDBRANCH   1  86
BRANCH   1 169
ATOM    169  CB  MET A   9      24.052   6.267   8.049  0.00  0.00    +0.041 C 
BRANCH 169 170
ATOM    170  CG  MET A   9      25.162   6.590   9.007  0.00  0.00    +0.060 C 
BRANCH 170 171
ATOM    171  SD  MET A   9      26.248   7.863   8.386  0.00  0.00    -0.139 S 
ATOM    172  CE  MET A   9      27.532   6.789   7.609  0.00  0.00    +0.069 C 
ENDBRANCH 170 171
ENDBRANCH 169 170
ENDBRANCH   1 169
TORSDOF 68
REMARK  Name = ../refined-set-2016/3b67/3b67_pocket.pdb
REMARK  255 active torsions:
REMARK  status: ('A' for Active; 'I' for Inactive)
REMARK    1  A    between atoms: _1  and  _3
REMARK    2  A    between atoms: _3  and  _4
REMARK    3  A    between atoms: _3  and  _6
REMARK    4  A    between atoms: _9  and  _11
REMARK    5  A    between atoms: _11  and  _12
REMARK    6  A    between atoms: _15  and  _17
REMARK    7  A    between atoms: _17  and  _18
REMARK    8  A    between atoms: _17  and  _20
REMARK    9  A    between atoms: _20  and  _21
REMARK   10  A    between atoms: _24  and  _26
REMARK   11  A    between atoms: _26  and  _27
REMARK   12  A    between atoms: _26  and  _29
REMARK   13  A    between atoms: _29  and  _30
REMARK   14  A    between atoms: _33  and  _35
REMARK   15  A    between atoms: _35  and  _36
REMARK   16  A    between atoms: _35  and  _38
REMARK   17  A    between atoms: _38  and  _39
REMARK   18  A    between atoms: _41  and  _43
REMARK   19  A    between atoms: _43  and  _44
REMARK   20  A    between atoms: _43  and  _46
REMARK   21  A    between atoms: _46  and  _47
REMARK   22  A    between atoms: _49  and  _51
REMARK   23  A    between atoms: _51  and  _52
REMARK   24  A    between atoms: _51  and  _54
REMARK   25  A    between atoms: _54  and  _55
REMARK   26  A    between atoms: _58  and  _60
REMARK   27  A    between atoms: _60  and  _61
REMARK   28  A    between atoms: _60  and  _63
REMARK   29  A    between atoms: _63  and  _64
REMARK   30  A    between atoms: _69  and  _71
REMARK   31  A    between atoms: _71  and  _72
REMARK   32  A    between atoms: _71  and  _74
REMARK   33  A    between atoms: _74  and  _75
REMARK   34  A    between atoms: _75  and  _76
REMARK   35  A    between atoms: _79  and  _81
REMARK   36  A    between atoms: _81  and  _82
REMARK   37  A    between atoms: _81  and  _84
REMARK   38  A    between atoms: _84  and  _85
REMARK   39  A    between atoms: _88  and  _90
REMARK   40  A    between atoms: _90  and  _91
REMARK   41  A    between atoms: _93  and  _95
REMARK   42  A    between atoms: _95  and  _96
REMARK   43  A    between atoms: _95  and  _98
REMARK   44  A    between atoms: _98  and  _99
REMARK   45  A    between atoms: _99  and  _100
REMARK   46  A    between atoms: _103  and  _105
REMARK   47  A    between atoms: _105  and  _106
REMARK   48  A    between atoms: _105  and  _108
REMARK   49  A    between atoms: _108  and  _109
REMARK   50  A    between atoms: _109  and  _110
REMARK   51  A    between atoms: _110  and  _111
REMARK   52  A    between atoms: _120  and  _122
REMARK   53  A    between atoms: _122  and  _123
REMARK   54  A    between atoms: _122  and  _125
REMARK   55  A    between atoms: _125  and  _126
REMARK   56  A    between atoms: _126  and  _127
REMARK   57  A    between atoms: _132  and  _134
REMARK   58  A    between atoms: _134  and  _135
REMARK   59  A    between atoms: _134  and  _137
REMARK   60  A    between atoms: _137  and  _138
REMARK   61  A    between atoms: _141  and  _143
REMARK   62  A    between atoms: _143  and  _144
REMARK   63  A    between atoms: _143  and  _146
REMARK   64  A    between atoms: _149  and  _151
REMARK   65  A    between atoms: _151  and  _152
REMARK   66  A    between atoms: _151  and  _154
REMARK   67  A    between atoms: _154  and  _155
REMARK   68  A    between atoms: _158  and  _160
REMARK   69  A    between atoms: _160  and  _161
REMARK   70  A    between atoms: _160  and  _163
REMARK   71  A    between atoms: _163  and  _164
REMARK   72  A    between atoms: _164  and  _165
REMARK   73  A    between atoms: _170  and  _172
REMARK   74  A    between atoms: _172  and  _173
REMARK   75  A    between atoms: _172  and  _175
REMARK   76  A    between atoms: _175  and  _176
REMARK   77  A    between atoms: _181  and  _182
REMARK   78  A    between atoms: _184  and  _186
REMARK   79  A    between atoms: _186  and  _187
REMARK   80  A    between atoms: _186  and  _189
REMARK   81  A    between atoms: _189  and  _190
REMARK   82  A    between atoms: _192  and  _194
REMARK   83  A    between atoms: _194  and  _195
REMARK   84  A    between atoms: _194  and  _197
REMARK   85  A    between atoms: _197  and  _198
REMARK   86  A    between atoms: _208  and  _210
REMARK   87  A    between atoms: _210  and  _211
REMARK   88  A    between atoms: _210  and  _213
REMARK   89  A    between atoms: _213  and  _214
REMARK   90  A    between atoms: _214  and  _215
REMARK   91  A    between atoms: _217  and  _219
REMARK   92  A    between atoms: _219  and  _220
REMARK   93  A    between atoms: _222  and  _224
REMARK   94  A    between atoms: _224  and  _225
REMARK   95  A    between atoms: _224  and  _227
REMARK   96  A    between atoms: _227  and  _228
REMARK   97  A    between atoms: _231  and  _233
REMARK   98  A    between atoms: _233  and  _234
REMARK   99  A    between atoms: _233  and  _236
REMARK  100  A    between atoms: _236  and  _237
REMARK  101  A    between atoms: _237  and  _238
REMARK  102  A    between atoms: _240  and  _242
REMARK  103  A    between atoms: _242  and  _243
REMARK  104  A    between atoms: _242  and  _245
REMARK  105  A    between atoms: _248  and  _250
REMARK  106  A    between atoms: _250  and  _251
REMARK  107  A    between atoms: _250  and  _253
REMARK  108  A    between atoms: _253  and  _254
REMARK  109  A    between atoms: _260  and  _262
REMARK  110  A    between atoms: _262  and  _263
REMARK  111  A    between atoms: _266  and  _268
REMARK  112  A    between atoms: _268  and  _269
REMARK  113  A    between atoms: _268  and  _271
REMARK  114  A    between atoms: _271  and  _272
REMARK  115  A    between atoms: _272  and  _273
REMARK  116  A    between atoms: _275  and  _277
REMARK  117  A    between atoms: _277  and  _278
REMARK  118  A    between atoms: _280  and  _282
REMARK  119  A    between atoms: _282  and  _283
REMARK  120  A    between atoms: _282  and  _285
REMARK  121  A    between atoms: _285  and  _286
REMARK  122  A    between atoms: _296  and  _298
REMARK  123  A    between atoms: _298  and  _299
REMARK  124  A    between atoms: _298  and  _301
REMARK  125  A    between atoms: _301  and  _302
REMARK  126  A    between atoms: _302  and  _303
REMARK  127  A    between atoms: _303  and  _304
REMARK  128  A    between atoms: _313  and  _315
REMARK  129  A    between atoms: _315  and  _316
REMARK  130  A    between atoms: _315  and  _318
REMARK  131  A    between atoms: _318  and  _319
REMARK  132  A    between atoms: _321  and  _323
REMARK  133  A    between atoms: _323  and  _324
REMARK  134  A    between atoms: _323  and  _326
REMARK  135  A    between atoms: _326  and  _327
REMARK  136  A    between atoms: _330  and  _332
REMARK  137  A    between atoms: _332  and  _333
REMARK  138  A    between atoms: _332  and  _335
REMARK  139  A    between atoms: _335  and  _336
REMARK  140  A    between atoms: _341  and  _342
REMARK  141  A    between atoms: _344  and  _346
REMARK  142  A    between atoms: _346  and  _347
REMARK  143  A    between atoms: _346  and  _349
REMARK  144  A    between atoms: _349  and  _350
REMARK  145  A    between atoms: _356  and  _358
REMARK  146  A    between atoms: _358  and  _359
REMARK  147  A    between atoms: _362  and  _364
REMARK  148  A    between atoms: _364  and  _365
REMARK  149  A    between atoms: _364  and  _367
REMARK  150  A    between atoms: _367  and  _368
REMARK  151  A    between atoms: _371  and  _373
REMARK  152  A    between atoms: _373  and  _374
REMARK  153  A    between atoms: _373  and  _376
REMARK  154  A    between atoms: _376  and  _377
REMARK  155  A    between atoms: _377  and  _378
REMARK  156  A    between atoms: _380  and  _382
REMARK  157  A    between atoms: _382  and  _383
REMARK  158  A    between atoms: _382  and  _385
REMARK  159  A    between atoms: _385  and  _386
REMARK  160  A    between atoms: _386  and  _387
REMARK  161  A    between atoms: _392  and  _394
REMARK  162  A    between atoms: _394  and  _395
REMARK  163  A    between atoms: _394  and  _397
REMARK  164  A    between atoms: _399  and  _401
REMARK  165  A    between atoms: _401  and  _402
REMARK  166  A    between atoms: _401  and  _404
REMARK  167  A    between atoms: _404  and  _405
REMARK  168  A    between atoms: _405  and  _406
REMARK  169  A    between atoms: _408  and  _410
REMARK  170  A    between atoms: _410  and  _411
REMARK  171  A    between atoms: _410  and  _413
REMARK  172  A    between atoms: _413  and  _414
REMARK  173  A    between atoms: _417  and  _419
REMARK  174  A    between atoms: _419  and  _420
REMARK  175  A    between atoms: _423  and  _425
REMARK  176  A    between atoms: _425  and  _426
REMARK  177  A    between atoms: _425  and  _428
REMARK  178  A    between atoms: _428  and  _429
REMARK  179  A    between atoms: _432  and  _434
REMARK  180  A    between atoms: _434  and  _435
REMARK  181  A    between atoms: _434  and  _437
REMARK  182  A    between atoms: _437  and  _438
REMARK  183  A    between atoms: _443  and  _445
REMARK  184  A    between atoms: _445  and  _446
REMARK  185  A    between atoms: _445  and  _448
REMARK  186  A    between atoms: _448  and  _449
REMARK  187  A    between atoms: _455  and  _457
REMARK  188  A    between atoms: _457  and  _458
REMARK  189  A    between atoms: _457  and  _460
REMARK  190  A    between atoms: _460  and  _461
REMARK  191  A    between atoms: _464  and  _466
REMARK  192  A    between atoms: _466  and  _467
REMARK  193  A    between atoms: _466  and  _469
REMARK  194  A    between atoms: _469  and  _470
REMARK  195  A    between atoms: _476  and  _478
REMARK  196  A    between atoms: _478  and  _479
REMARK  197  A    between atoms: _478  and  _481
REMARK  198  A    between atoms: _481  and  _482
REMARK  199  A    between atoms: _485  and  _487
REMARK  200  A    between atoms: _487  and  _488
REMARK  201  A    between atoms: _487  and  _490
REMARK  202  A    between atoms: _490  and  _491
REMARK  203  A    between atoms: _494  and  _496
REMARK  204  A    between atoms: _496  and  _497
REMARK  205  A    between atoms: _496  and  _499
REMARK  206  A    between atoms: _502  and  _504
REMARK  207  A    between atoms: _504  and  _505
REMARK  208  A    between atoms: _504  and  _507
REMARK  209  A    between atoms: _507  and  _508
REMARK  210  A    between atoms: _511  and  _513
REMARK  211  A    between atoms: _513  and  _514
REMARK  212  A    between atoms: _513  and  _516
REMARK  213  A    between atoms: _516  and  _517
REMARK  214  A    between atoms: _524  and  _525
REMARK  215  A    between atoms: _530  and  _532
REMARK  216  A    between atoms: _532  and  _533
REMARK  217  A    between atoms: _532  and  _535
REMARK  218  A    between atoms: _535  and  _536
REMARK  219  A    between atoms: _536  and  _537
REMARK  220  A    between atoms: _539  and  _541
REMARK  221  A    between atoms: _541  and  _542
REMARK  222  A    between atoms: _541  and  _544
REMARK  223  A    between atoms: _544  and  _545
REMARK  224  A    between atoms: _545  and  _546
REMARK  225  A    between atoms: _548  and  _550
REMARK  226  A    between atoms: _550  and  _551
REMARK  227  A    between atoms: _554  and  _556
REMARK  228  A    between atoms: _556  and  _557
REMARK  229  A    between atoms: _556  and  _559
REMARK  230  A    between atoms: _559  and  _560
REMARK  231  A    between atoms: _560  and  _561
REMARK  232  A    between atoms: _564  and  _566
REMARK  233  A    between atoms: _566  and  _567
REMARK  234  A    between atoms: _566  and  _569
REMARK  235  A    between atoms: _569  and  _570
REMARK  236  A    between atoms: _573  and  _575
REMARK  237  A    between atoms: _575  and  _576
REMARK  238  A    between atoms: _575  and  _578
REMARK  239  A    between atoms: _578  and  _579
REMARK  240  A    between atoms: _582  and  _584
REMARK  241  A    between atoms: _584  and  _585
REMARK  242  A    between atoms: _584  and  _587
REMARK  243  A    between atoms: _587  and  _588
REMARK  244  A    between atoms: _590  and  _592
REMARK  245  A    between atoms: _592  and  _593
REMARK  246  A    between atoms: _592  and  _595
REMARK  247  A    between atoms: _595  and  _596
REMARK  248  A    between atoms: _596  and  _597
REMARK  249  A    between atoms: _602  and  _604
REMARK  250  A    between atoms: _604  and  _605
REMARK  251  A    between atoms: _604  and  _607
REMARK  252  A    between atoms: _610  and  _612
REMARK  253  A    between atoms: _612  and  _613
REMARK  254  A    between atoms: _612  and  _615
REMARK  255  A    between atoms: _615  and  _616
REMARK                            x       y       z     vdW  Elec       q    Type
REMARK                         _______ _______ _______ _____ _____    ______ ____
ROOT
ATOM      1  CA  TYR A   2      20.986   9.404  -2.458  0.00  0.00    +0.153 C 
ENDROOT
BRANCH   1   3
ATOM      2  C   LEU A   1      20.355   7.155  -3.197  0.00  0.00    +0.238 C 
ATOM      3  N   TYR A   2      20.080   8.259  -2.510  0.00  0.00    -0.297 N 
ATOM      4  H   TYR A   2      19.182   8.310  -1.988  0.00  0.00    +0.150 HD
ATOM      5  O   LEU A   1      21.403   6.989  -3.817  0.00  0.00    -0.274 OA
BRANCH   2   6
ATOM      6  CA  LEU A   1      19.285   6.078  -3.176  0.00  0.00    +0.145 C 
BRANCH   6   7
ATOM      7  N   LEU A   1      18.739   5.888  -4.517  0.00  0.00    -0.238 NA
ATOM      8  H   LEU A   1      19.173   5.189  -5.153  0.00  0.00    +0.142 HD
ENDBRANCH   6   7
BRANCH   6   9
ATOM      9  CB  LEU A   1      19.864   4.768  -2.656  0.00  0.00    +0.026 C 
BRANCH   9  10
ATOM     10  CG  LEU A   1      18.807   3.674  -2.530  0.00  0.00    +0.002 C 
ATOM     11  CD2 LEU A   1      17.685   4.156  -1.617  0.00  0.00    +0.000 C 
ATOM     12  CD1 LEU A   1      19.441   2.417  -1.986  0.00  0.00    +0.000 C 
ENDBRANCH   9  10
ENDBRANCH   6   9
ENDBRANCH   2   6
ENDBRANCH   1   3
BRANCH   1  13
ATOM     13  C   TYR A   2      21.970   9.293  -1.300  0.00  0.00    +0.241 C 
ATOM     14  O   TYR A   2      21.802   9.955  -0.273  0.00  0.00    -0.273 OA
ATOM     15  N   PHE A   3      22.988   8.451  -1.448  0.00  0.00    -0.297 N 
ATOM     16  H   PHE A   3      23.078   7.894  -2.321  0.00  0.00    +0.150 HD
BRANCH  15  17
ATOM     17  CA  PHE A   3      23.983   8.307  -0.383  0.00  0.00    +0.153 C 
BRANCH  17  18
ATOM     18  C   PHE A   3      24.719   9.633  -0.212  0.00  0.00    +0.241 C 
ATOM     19  O   PHE A   3      25.040  10.046   0.898  0.00  0.00    -0.273 OA
ATOM     20  N   ALA A   4      24.980  10.287  -1.336  0.00  0.00    -0.298 N 
ATOM     21  H   ALA A   4      24.687   9.858  -2.237  0.00  0.00    +0.150 HD
BRANCH  20  22
ATOM     22  CA  ALA A   4      25.657  11.576  -1.371  0.00  0.00    +0.137 C 
ATOM     23  CB  ALA A   4      27.149  11.398  -1.125  0.00  0.00    +0.030 C 
BRANCH  22  24
ATOM     24  C   ALA A   4      25.411  12.171  -2.758  0.00  0.00    +0.227 C 
ATOM     25  O   ALA A   4      25.014  11.460  -3.682  0.00  0.00    -0.286 OA
ENDBRANCH  22  24
ENDBRANCH  20  22
ENDBRANCH  17  18
BRANCH  17  26
ATOM     26  CB  PHE A   3      24.994   7.214  -0.724  0.00  0.00    +0.055 C 
BRANCH  26  27
ATOM     27  CG  PHE A   3      24.413   5.832  -0.758  0.00  0.00    -0.020 A 
ATOM     28  CD2 PHE A   3      24.437   5.032   0.379  0.00  0.00    -0.004 A 
ATOM     29  CE2 PHE A   3      23.951   3.730   0.343  0.00  0.00    -0.000 A 
ATOM     30  CZ  PHE A   3      23.431   3.217  -0.840  0.00  0.00    -0.000 A 
ATOM     31  CE1 PHE A   3      23.398   4.010  -1.980  0.00  0.00    -0.000 A 
ATOM     32  CD1 PHE A   3      23.885   5.311  -1.936  0.00  0.00    -0.004 A 
ENDBRANCH  26  27
ENDBRANCH  17  26
ENDBRANCH  15  17
ENDBRANCH   1  13
BRANCH   1  33
ATOM     33  CB  TYR A   2      20.165  10.680  -2.295  0.00  0.00    +0.055 C 
BRANCH  33  34
ATOM     34  CG  TYR A   2      20.839  11.963  -2.731  0.00  0.00    -0.020 A 
ATOM     35  CD2 TYR A   2      21.650  12.685  -1.853  0.00  0.00    -0.001 A 
ATOM     36  CE2 TYR A   2      22.200  13.911  -2.227  0.00  0.00    +0.036 A 
ATOM     37  CZ  TYR A   2      21.932  14.425  -3.493  0.00  0.00    +0.134 A 
ATOM     38  CE1 TYR A   2      21.140  13.723  -4.380  0.00  0.00    +0.036 A 
ATOM     39  CD1 TYR A   2      20.602  12.496  -3.997  0.00  0.00    -0.001 A 
BRANCH  37  40
ATOM     40  OH  TYR A   2      22.418  15.660  -3.852  0.00  0.00    -0.506 OA
ATOM     41  HH  TYR A   2      22.061  16.346  -3.234  0.00  0.00    +0.292 HD
ENDBRANCH  37  40
ENDBRANCH  33  34
ENDBRANCH   1  33
TORSDOF 15
REMARK  Name = ../refined-set-2016/3b67/3b67_pocket.pdb
REMARK  255 active torsions:
REMARK  status: ('A' for Active; 'I' for Inactive)
REMARK    1  A    between atoms: _1  and  _3
REMARK    2  A    between atoms: _3  and  _4
REMARK    3  A    between atoms: _3  and  _6
REMARK    4  A    between atoms: _9  and  _11
REMARK    5  A    between atoms: _11  and  _12
REMARK    6  A    between atoms: _15  and  _17
REMARK    7  A    between atoms: _17  and  _18
REMARK    8  A    between atoms: _17  and  _20
REMARK    9  A    between atoms: _20  and  _21
REMARK   10  A    between atoms: _24  and  _26
REMARK   11  A    between atoms: _26  and  _27
REMARK   12  A    between atoms: _26  and  _29
REMARK   13  A    between atoms: _29  and  _30
REMARK   14  A    between atoms: _33  and  _35
REMARK   15  A    between atoms: _35  and  _36
REMARK   16  A    between atoms: _35  and  _38
REMARK   17  A    between atoms: _38  and  _39
REMARK   18  A    between atoms: _41  and  _43
REMARK   19  A    between atoms: _43  and  _44
REMARK   20  A    between atoms: _43  and  _46
REMARK   21  A    between atoms: _46  and  _47
REMARK   22  A    between atoms: _49  and  _51
REMARK   23  A    between atoms: _51  and  _52
REMARK   24  A    between atoms: _51  and  _54
REMARK   25  A    between atoms: _54  and  _55
REMARK   26  A    between atoms: _58  and  _60
REMARK   27  A    between atoms: _60  and  _61
REMARK   28  A    between atoms: _60  and  _63
REMARK   29  A    between atoms: _63  and  _64
REMARK   30  A    between atoms: _69  and  _71
REMARK   31  A    between atoms: _71  and  _72
REMARK   32  A    between atoms: _71  and  _74
REMARK   33  A    between atoms: _74  and  _75
REMARK   34  A    between atoms: _75  and  _76
REMARK   35  A    between atoms: _79  and  _81
REMARK   36  A    between atoms: _81  and  _82
REMARK   37  A    between atoms: _81  and  _84
REMARK   38  A    between atoms: _84  and  _85
REMARK   39  A    between atoms: _88  and  _90
REMARK   40  A    between atoms: _90  and  _91
REMARK   41  A    between atoms: _93  and  _95
REMARK   42  A    between atoms: _95  and  _96
REMARK   43  A    between atoms: _95  and  _98
REMARK   44  A    between atoms: _98  and  _99
REMARK   45  A    between atoms: _99  and  _100
REMARK   46  A    between atoms: _103  and  _105
REMARK   47  A    between atoms: _105  and  _106
REMARK   48  A    between atoms: _105  and  _108
REMARK   49  A    between atoms: _108  and  _109
REMARK   50  A    between atoms: _109  and  _110
REMARK   51  A    between atoms: _110  and  _111
REMARK   52  A    between atoms: _120  and  _122
REMARK   53  A    between atoms: _122  and  _123
REMARK   54  A    between atoms: _122  and  _125
REMARK   55  A    between atoms: _125  and  _126
REMARK   56  A    between atoms: _126  and  _127
REMARK   57  A    between atoms: _132  and  _134
REMARK   58  A    between atoms: _134  and  _135
REMARK   59  A    between atoms: _134  and  _137
REMARK   60  A    between atoms: _137  and  _138
REMARK   61  A    between atoms: _141  and  _143
REMARK   62  A    between atoms: _143  and  _144
REMARK   63  A    between atoms: _143  and  _146
REMARK   64  A    between atoms: _149  and  _151
REMARK   65  A    between atoms: _151  and  _152
REMARK   66  A    between atoms: _151  and  _154
REMARK   67  A    between atoms: _154  and  _155
REMARK   68  A    between atoms: _158  and  _160
REMARK   69  A    between atoms: _160  and  _161
REMARK   70  A    between atoms: _160  and  _163
REMARK   71  A    between atoms: _163  and  _164
REMARK   72  A    between atoms: _164  and  _165
REMARK   73  A    between atoms: _170  and  _172
REMARK   74  A    between atoms: _172  and  _173
REMARK   75  A    between atoms: _172  and  _175
REMARK   76  A    between atoms: _175  and  _176
REMARK   77  A    between atoms: _181  and  _182
REMARK   78  A    between atoms: _184  and  _186
REMARK   79  A    between atoms: _186  and  _187
REMARK   80  A    between atoms: _186  and  _189
REMARK   81  A    between atoms: _189  and  _190
REMARK   82  A    between atoms: _192  and  _194
REMARK   83  A    between atoms: _194  and  _195
REMARK   84  A    between atoms: _194  and  _197
REMARK   85  A    between atoms: _197  and  _198
REMARK   86  A    between atoms: _208  and  _210
REMARK   87  A    between atoms: _210  and  _211
REMARK   88  A    between atoms: _210  and  _213
REMARK   89  A    between atoms: _213  and  _214
REMARK   90  A    between atoms: _214  and  _215
REMARK   91  A    between atoms: _217  and  _219
REMARK   92  A    between atoms: _219  and  _220
REMARK   93  A    between atoms: _222  and  _224
REMARK   94  A    between atoms: _224  and  _225
REMARK   95  A    between atoms: _224  and  _227
REMARK   96  A    between atoms: _227  and  _228
REMARK   97  A    between atoms: _231  and  _233
REMARK   98  A    between atoms: _233  and  _234
REMARK   99  A    between atoms: _233  and  _236
REMARK  100  A    between atoms: _236  and  _237
REMARK  101  A    between atoms: _237  and  _238
REMARK  102  A    between atoms: _240  and  _242
REMARK  103  A    between atoms: _242  and  _243
REMARK  104  A    between atoms: _242  and  _245
REMARK  105  A    between atoms: _248  and  _250
REMARK  106  A    between atoms: _250  and  _251
REMARK  107  A    between atoms: _250  and  _253
REMARK  108  A    between atoms: _253  and  _254
REMARK  109  A    between atoms: _260  and  _262
REMARK  110  A    between atoms: _262  and  _263
REMARK  111  A    between atoms: _266  and  _268
REMARK  112  A    between atoms: _268  and  _269
REMARK  113  A    between atoms: _268  and  _271
REMARK  114  A    between atoms: _271  and  _272
REMARK  115  A    between atoms: _272  and  _273
REMARK  116  A    between atoms: _275  and  _277
REMARK  117  A    between atoms: _277  and  _278
REMARK  118  A    between atoms: _280  and  _282
REMARK  119  A    between atoms: _282  and  _283
REMARK  120  A    between atoms: _282  and  _285
REMARK  121  A    between atoms: _285  and  _286
REMARK  122  A    between atoms: _296  and  _298
REMARK  123  A    between atoms: _298  and  _299
REMARK  124  A    between atoms: _298  and  _301
REMARK  125  A    between atoms: _301  and  _302
REMARK  126  A    between atoms: _302  and  _303
REMARK  127  A    between atoms: _303  and  _304
REMARK  128  A    between atoms: _313  and  _315
REMARK  129  A    between atoms: _315  and  _316
REMARK  130  A    between atoms: _315  and  _318
REMARK  131  A    between atoms: _318  and  _319
REMARK  132  A    between atoms: _321  and  _323
REMARK  133  A    between atoms: _323  and  _324
REMARK  134  A    between atoms: _323  and  _326
REMARK  135  A    between atoms: _326  and  _327
REMARK  136  A    between atoms: _330  and  _332
REMARK  137  A    between atoms: _332  and  _333
REMARK  138  A    between atoms: _332  and  _335
REMARK  139  A    between atoms: _335  and  _336
REMARK  140  A    between atoms: _341  and  _342
REMARK  141  A    between atoms: _344  and  _346
REMARK  142  A    between atoms: _346  and  _347
REMARK  143  A    between atoms: _346  and  _349
REMARK  144  A    between atoms: _349  and  _350
REMARK  145  A    between atoms: _356  and  _358
REMARK  146  A    between atoms: _358  and  _359
REMARK  147  A    between atoms: _362  and  _364
REMARK  148  A    between atoms: _364  and  _365
REMARK  149  A    between atoms: _364  and  _367
REMARK  150  A    between atoms: _367  and  _368
REMARK  151  A    between atoms: _371  and  _373
REMARK  152  A    between atoms: _373  and  _374
REMARK  153  A    between atoms: _373  and  _376
REMARK  154  A    between atoms: _376  and  _377
REMARK  155  A    between atoms: _377  and  _378
REMARK  156  A    between atoms: _380  and  _382
REMARK  157  A    between atoms: _382  and  _383
REMARK  158  A    between atoms: _382  and  _385
REMARK  159  A    between atoms: _385  and  _386
REMARK  160  A    between atoms: _386  and  _387
REMARK  161  A    between atoms: _392  and  _394
REMARK  162  A    between atoms: _394  and  _395
REMARK  163  A    between atoms: _394  and  _397
REMARK  164  A    between atoms: _399  and  _401
REMARK  165  A    between atoms: _401  and  _402
REMARK  166  A    between atoms: _401  and  _404
REMARK  167  A    between atoms: _404  and  _405
REMARK  168  A    between atoms: _405  and  _406
REMARK  169  A    between atoms: _408  and  _410
REMARK  170  A    between atoms: _410  and  _411
REMARK  171  A    between atoms: _410  and  _413
REMARK  172  A    between atoms: _413  and  _414
REMARK  173  A    between atoms: _417  and  _419
REMARK  174  A    between atoms: _419  and  _420
REMARK  175  A    between atoms: _423  and  _425
REMARK  176  A    between atoms: _425  and  _426
REMARK  177  A    between atoms: _425  and  _428
REMARK  178  A    between atoms: _428  and  _429
REMARK  179  A    between atoms: _432  and  _434
REMARK  180  A    between atoms: _434  and  _435
REMARK  181  A    between atoms: _434  and  _437
REMARK  182  A    between atoms: _437  and  _438
REMARK  183  A    between atoms: _443  and  _445
REMARK  184  A    between atoms: _445  and  _446
REMARK  185  A    between atoms: _445  and  _448
REMARK  186  A    between atoms: _448  and  _449
REMARK  187  A    between atoms: _455  and  _457
REMARK  188  A    between atoms: _457  and  _458
REMARK  189  A    between atoms: _457  and  _460
REMARK  190  A    between atoms: _460  and  _461
REMARK  191  A    between atoms: _464  and  _466
REMARK  192  A    between atoms: _466  and  _467
REMARK  193  A    between atoms: _466  and  _469
REMARK  194  A    between atoms: _469  and  _470
REMARK  195  A    between atoms: _476  and  _478
REMARK  196  A    between atoms: _478  and  _479
REMARK  197  A    between atoms: _478  and  _481
REMARK  198  A    between atoms: _481  and  _482
REMARK  199  A    between atoms: _485  and  _487
REMARK  200  A    between atoms: _487  and  _488
REMARK  201  A    between atoms: _487  and  _490
REMARK  202  A    between atoms: _490  and  _491
REMARK  203  A    between atoms: _494  and  _496
REMARK  204  A    between atoms: _496  and  _497
REMARK  205  A    between atoms: _496  and  _499
REMARK  206  A    between atoms: _502  and  _504
REMARK  207  A    between atoms: _504  and  _505
REMARK  208  A    between atoms: _504  and  _507
REMARK  209  A    between atoms: _507  and  _508
REMARK  210  A    between atoms: _511  and  _513
REMARK  211  A    between atoms: _513  and  _514
REMARK  212  A    between atoms: _513  and  _516
REMARK  213  A    between atoms: _516  and  _517
REMARK  214  A    between atoms: _524  and  _525
REMARK  215  A    between atoms: _530  and  _532
REMARK  216  A    between atoms: _532  and  _533
REMARK  217  A    between atoms: _532  and  _535
REMARK  218  A    between atoms: _535  and  _536
REMARK  219  A    between atoms: _536  and  _537
REMARK  220  A    between atoms: _539  and  _541
REMARK  221  A    between atoms: _541  and  _542
REMARK  222  A    between atoms: _541  and  _544
REMARK  223  A    between atoms: _544  and  _545
REMARK  224  A    between atoms: _545  and  _546
REMARK  225  A    between atoms: _548  and  _550
REMARK  226  A    between atoms: _550  and  _551
REMARK  227  A    between atoms: _554  and  _556
REMARK  228  A    between atoms: _556  and  _557
REMARK  229  A    between atoms: _556  and  _559
REMARK  230  A    between atoms: _559  and  _560
REMARK  231  A    between atoms: _560  and  _561
REMARK  232  A    between atoms: _564  and  _566
REMARK  233  A    between atoms: _566  and  _567
REMARK  234  A    between atoms: _566  and  _569
REMARK  235  A    between atoms: _569  and  _570
REMARK  236  A    between atoms: _573  and  _575
REMARK  237  A    between atoms: _575  and  _576
REMARK  238  A    between atoms: _575  and  _578
REMARK  239  A    between atoms: _578  and  _579
REMARK  240  A    between atoms: _582  and  _584
REMARK  241  A    between atoms: _584  and  _585
REMARK  242  A    between atoms: _584  and  _587
REMARK  243  A    between atoms: _587  and  _588
REMARK  244  A    between atoms: _590  and  _592
REMARK  245  A    between atoms: _592  and  _593
REMARK  246  A    between atoms: _592  and  _595
REMARK  247  A    between atoms: _595  and  _596
REMARK  248  A    between atoms: _596  and  _597
REMARK  249  A    between atoms: _602  and  _604
REMARK  250  A    between atoms: _604  and  _605
REMARK  251  A    between atoms: _604  and  _607
REMARK  252  A    between atoms: _610  and  _612
REMARK  253  A    between atoms: _612  and  _613
REMARK  254  A    between atoms: _612  and  _615
REMARK  255  A    between atoms: _615  and  _616
REMARK                            x       y       z     vdW  Elec       q    Type
REMARK                         _______ _______ _______ _____ _____    ______ ____
ROOT
ATOM      1  CA  LEU A   1      27.134   8.752  -4.943  0.00  0.00    +0.133 C 
ENDROOT
BRANCH   1   2
ATOM      2  N   LEU A   1      27.262  10.191  -5.121  0.00  0.00    -0.239 NA
ATOM      3  H   LEU A   1      26.549  10.817  -4.696  0.00  0.00    +0.142 HD
ENDBRANCH   1   2
BRANCH   1   4
ATOM      4  C   LEU A   1      25.648   8.406  -4.861  0.00  0.00    +0.224 C 
ATOM      5  O   LEU A   1      25.113   8.093  -3.788  0.00  0.00    -0.287 OA
ENDBRANCH   1   4
BRANCH   1   6
ATOM      6  CB  LEU A   1      27.858   8.278  -3.678  0.00  0.00    +0.025 C 
BRANCH   6   7
ATOM      7  CG  LEU A   1      27.933   6.747  -3.524  0.00  0.00    +0.002 C 
ATOM      8  CD2 LEU A   1      28.547   6.397  -2.172  0.00  0.00    +0.000 C 
ATOM      9  CD1 LEU A   1      28.763   6.151  -4.662  0.00  0.00    +0.000 C 
ENDBRANCH   6   7
ENDBRANCH   1   6
TORSDOF 4
REMARK  Name = ../refined-set-2016/3b67/3b67_pocket.pdb
REMARK  255 active torsions:
REMARK  status: ('A' for Active; 'I' for Inactive)
REMARK    1  A    between atoms: _1  and  _3
REMARK    2  A    between atoms: _3  and  _4
REMARK    3  A    between atoms: _3  and  _6
REMARK    4  A    between atoms: _9  and  _11
REMARK    5  A    between atoms: _11  and  _12
REMARK    6  A    between atoms: _15  and  _17
REMARK    7  A    between atoms: _17  and  _18
REMARK    8  A    between atoms: _17  and  _20
REMARK    9  A    between atoms: _20  and  _21
REMARK   10  A    between atoms: _24  and  _26
REMARK   11  A    between atoms: _26  and  _27
REMARK   12  A    between atoms: _26  and  _29
REMARK   13  A    between atoms: _29  and  _30
REMARK   14  A    between atoms: _33  and  _35
REMARK   15  A    between atoms: _35  and  _36
REMARK   16  A    between atoms: _35  and  _38
REMARK   17  A    between atoms: _38  and  _39
REMARK   18  A    between atoms: _41  and  _43
REMARK   19  A    between atoms: _43  and  _44
REMARK   20  A    between atoms: _43  and  _46
REMARK   21  A    between atoms: _46  and  _47
REMARK   22  A    between atoms: _49  and  _51
REMARK   23  A    between atoms: _51  and  _52
REMARK   24  A    between atoms: _51  and  _54
REMARK   25  A    between atoms: _54  and  _55
REMARK   26  A    between atoms: _58  and  _60
REMARK   27  A    between atoms: _60  and  _61
REMARK   28  A    between atoms: _60  and  _63
REMARK   29  A    between atoms: _63  and  _64
REMARK   30  A    between atoms: _69  and  _71
REMARK   31  A    between atoms: _71  and  _72
REMARK   32  A    between atoms: _71  and  _74
REMARK   33  A    between atoms: _74  and  _75
REMARK   34  A    between atoms: _75  and  _76
REMARK   35  A    between atoms: _79  and  _81
REMARK   36  A    between atoms: _81  and  _82
REMARK   37  A    between atoms: _81  and  _84
REMARK   38  A    between atoms: _84  and  _85
REMARK   39  A    between atoms: _88  and  _90
REMARK   40  A    between atoms: _90  and  _91
REMARK   41  A    between atoms: _93  and  _95
REMARK   42  A    between atoms: _95  and  _96
REMARK   43  A    between atoms: _95  and  _98
REMARK   44  A    between atoms: _98  and  _99
REMARK   45  A    between atoms: _99  and  _100
REMARK   46  A    between atoms: _103  and  _105
REMARK   47  A    between atoms: _105  and  _106
REMARK   48  A    between atoms: _105  and  _108
REMARK   49  A    between atoms: _108  and  _109
REMARK   50  A    between atoms: _109  and  _110
REMARK   51  A    between atoms: _110  and  _111
REMARK   52  A    between atoms: _120  and  _122
REMARK   53  A    between atoms: _122  and  _123
REMARK   54  A    between atoms: _122  and  _125
REMARK   55  A    between atoms: _125  and  _126
REMARK   56  A    between atoms: _126  and  _127
REMARK   57  A    between atoms: _132  and  _134
REMARK   58  A    between atoms: _134  and  _135
REMARK   59  A    between atoms: _134  and  _137
REMARK   60  A    between atoms: _137  and  _138
REMARK   61  A    between atoms: _141  and  _143
REMARK   62  A    between atoms: _143  and  _144
REMARK   63  A    between atoms: _143  and  _146
REMARK   64  A    between atoms: _149  and  _151
REMARK   65  A    between atoms: _151  and  _152
REMARK   66  A    between atoms: _151  and  _154
REMARK   67  A    between atoms: _154  and  _155
REMARK   68  A    between atoms: _158  and  _160
REMARK   69  A    between atoms: _160  and  _161
REMARK   70  A    between atoms: _160  and  _163
REMARK   71  A    between atoms: _163  and  _164
REMARK   72  A    between atoms: _164  and  _165
REMARK   73  A    between atoms: _170  and  _172
REMARK   74  A    between atoms: _172  and  _173
REMARK   75  A    between atoms: _172  and  _175
REMARK   76  A    between atoms: _175  and  _176
REMARK   77  A    between atoms: _181  and  _182
REMARK   78  A    between atoms: _184  and  _186
REMARK   79  A    between atoms: _186  and  _187
REMARK   80  A    between atoms: _186  and  _189
REMARK   81  A    between atoms: _189  and  _190
REMARK   82  A    between atoms: _192  and  _194
REMARK   83  A    between atoms: _194  and  _195
REMARK   84  A    between atoms: _194  and  _197
REMARK   85  A    between atoms: _197  and  _198
REMARK   86  A    between atoms: _208  and  _210
REMARK   87  A    between atoms: _210  and  _211
REMARK   88  A    between atoms: _210  and  _213
REMARK   89  A    between atoms: _213  and  _214
REMARK   90  A    between atoms: _214  and  _215
REMARK   91  A    between atoms: _217  and  _219
REMARK   92  A    between atoms: _219  and  _220
REMARK   93  A    between atoms: _222  and  _224
REMARK   94  A    between atoms: _224  and  _225
REMARK   95  A    between atoms: _224  and  _227
REMARK   96  A    between atoms: _227  and  _228
REMARK   97  A    between atoms: _231  and  _233
REMARK   98  A    between atoms: _233  and  _234
REMARK   99  A    between atoms: _233  and  _236
REMARK  100  A    between atoms: _236  and  _237
REMARK  101  A    between atoms: _237  and  _238
REMARK  102  A    between atoms: _240  and  _242
REMARK  103  A    between atoms: _242  and  _243
REMARK  104  A    between atoms: _242  and  _245
REMARK  105  A    between atoms: _248  and  _250
REMARK  106  A    between atoms: _250  and  _251
REMARK  107  A    between atoms: _250  and  _253
REMARK  108  A    between atoms: _253  and  _254
REMARK  109  A    between atoms: _260  and  _262
REMARK  110  A    between atoms: _262  and  _263
REMARK  111  A    between atoms: _266  and  _268
REMARK  112  A    between atoms: _268  and  _269
REMARK  113  A    between atoms: _268  and  _271
REMARK  114  A    between atoms: _271  and  _272
REMARK  115  A    between atoms: _272  and  _273
REMARK  116  A    between atoms: _275  and  _277
REMARK  117  A    between atoms: _277  and  _278
REMARK  118  A    between atoms: _280  and  _282
REMARK  119  A    between atoms: _282  and  _283
REMARK  120  A    between atoms: _282  and  _285
REMARK  121  A    between atoms: _285  and  _286
REMARK  122  A    between atoms: _296  and  _298
REMARK  123  A    between atoms: _298  and  _299
REMARK  124  A    between atoms: _298  and  _301
REMARK  125  A    between atoms: _301  and  _302
REMARK  126  A    between atoms: _302  and  _303
REMARK  127  A    between atoms: _303  and  _304
REMARK  128  A    between atoms: _313  and  _315
REMARK  129  A    between atoms: _315  and  _316
REMARK  130  A    between atoms: _315  and  _318
REMARK  131  A    between atoms: _318  and  _319
REMARK  132  A    between atoms: _321  and  _323
REMARK  133  A    between atoms: _323  and  _324
REMARK  134  A    between atoms: _323  and  _326
REMARK  135  A    between atoms: _326  and  _327
REMARK  136  A    between atoms: _330  and  _332
REMARK  137  A    between atoms: _332  and  _333
REMARK  138  A    between atoms: _332  and  _335
REMARK  139  A    between atoms: _335  and  _336
REMARK  140  A    between atoms: _341  and  _342
REMARK  141  A    between atoms: _344  and  _346
REMARK  142  A    between atoms: _346  and  _347
REMARK  143  A    between atoms: _346  and  _349
REMARK  144  A    between atoms: _349  and  _350
REMARK  145  A    between atoms: _356  and  _358
REMARK  146  A    between atoms: _358  and  _359
REMARK  147  A    between atoms: _362  and  _364
REMARK  148  A    between atoms: _364  and  _365
REMARK  149  A    between atoms: _364  and  _367
REMARK  150  A    between atoms: _367  and  _368
REMARK  151  A    between atoms: _371  and  _373
REMARK  152  A    between atoms: _373  and  _374
REMARK  153  A    between atoms: _373  and  _376
REMARK  154  A    between atoms: _376  and  _377
REMARK  155  A    between atoms: _377  and  _378
REMARK  156  A    between atoms: _380  and  _382
REMARK  157  A    between atoms: _382  and  _383
REMARK  158  A    between atoms: _382  and  _385
REMARK  159  A    between atoms: _385  and  _386
REMARK  160  A    between atoms: _386  and  _387
REMARK  161  A    between atoms: _392  and  _394
REMARK  162  A    between atoms: _394  and  _395
REMARK  163  A    between atoms: _394  and  _397
REMARK  164  A    between atoms: _399  and  _401
REMARK  165  A    between atoms: _401  and  _402
REMARK  166  A    between atoms: _401  and  _404
REMARK  167  A    between atoms: _404  and  _405
REMARK  168  A    between atoms: _405  and  _406
REMARK  169  A    between atoms: _408  and  _410
REMARK  170  A    between atoms: _410  and  _411
REMARK  171  A    between atoms: _410  and  _413
REMARK  172  A    between atoms: _413  and  _414
REMARK  173  A    between atoms: _417  and  _419
REMARK  174  A    between atoms: _419  and  _420
REMARK  175  A    between atoms: _423  and  _425
REMARK  176  A    between atoms: _425  and  _426
REMARK  177  A    between atoms: _425  and  _428
REMARK  178  A    between atoms: _428  and  _429
REMARK  179  A    between atoms: _432  and  _434
REMARK  180  A    between atoms: _434  and  _435
REMARK  181  A    between atoms: _434  and  _437
REMARK  182  A    between atoms: _437  and  _438
REMARK  183  A    between atoms: _443  and  _445
REMARK  184  A    between atoms: _445  and  _446
REMARK  185  A    between atoms: _445  and  _448
REMARK  186  A    between atoms: _448  and  _449
REMARK  187  A    between atoms: _455  and  _457
REMARK  188  A    between atoms: _457  and  _458
REMARK  189  A    between atoms: _457  and  _460
REMARK  190  A    between atoms: _460  and  _461
REMARK  191  A    between atoms: _464  and  _466
REMARK  192  A    between atoms: _466  and  _467
REMARK  193  A    between atoms: _466  and  _469
REMARK  194  A    between atoms: _469  and  _470
REMARK  195  A    between atoms: _476  and  _478
REMARK  196  A    between atoms: _478  and  _479
REMARK  197  A    between atoms: _478  and  _481
REMARK  198  A    between atoms: _481  and  _482
REMARK  199  A    between atoms: _485  and  _487
REMARK  200  A    between atoms: _487  and  _488
REMARK  201  A    between atoms: _487  and  _490
REMARK  202  A    between atoms: _490  and  _491
REMARK  203  A    between atoms: _494  and  _496
REMARK  204  A    between atoms: _496  and  _497
REMARK  205  A    between atoms: _496  and  _499
REMARK  206  A    between atoms: _502  and  _504
REMARK  207  A    between atoms: _504  and  _505
REMARK  208  A    between atoms: _504  and  _507
REMARK  209  A    between atoms: _507  and  _508
REMARK  210  A    between atoms: _511  and  _513
REMARK  211  A    between atoms: _513  and  _514
REMARK  212  A    between atoms: _513  and  _516
REMARK  213  A    between atoms: _516  and  _517
REMARK  214  A    between atoms: _524  and  _525
REMARK  215  A    between atoms: _530  and  _532
REMARK  216  A    between atoms: _532  and  _533
REMARK  217  A    between atoms: _532  and  _535
REMARK  218  A    between atoms: _535  and  _536
REMARK  219  A    between atoms: _536  and  _537
REMARK  220  A    between atoms: _539  and  _541
REMARK  221  A    between atoms: _541  and  _542
REMARK  222  A    between atoms: _541  and  _544
REMARK  223  A    between atoms: _544  and  _545
REMARK  224  A    between atoms: _545  and  _546
REMARK  225  A    between atoms: _548  and  _550
REMARK  226  A    between atoms: _550  and  _551
REMARK  227  A    between atoms: _554  and  _556
REMARK  228  A    between atoms: _556  and  _557
REMARK  229  A    between atoms: _556  and  _559
REMARK  230  A    between atoms: _559  and  _560
REMARK  231  A    between atoms: _560  and  _561
REMARK  232  A    between atoms: _564  and  _566
REMARK  233  A    between atoms: _566  and  _567
REMARK  234  A    between atoms: _566  and  _569
REMARK  235  A    between atoms: _569  and  _570
REMARK  236  A    between atoms: _573  and  _575
REMARK  237  A    between atoms: _575  and  _576
REMARK  238  A    between atoms: _575  and  _578
REMARK  239  A    between atoms: _578  and  _579
REMARK  240  A    between atoms: _582  and  _584
REMARK  241  A    between atoms: _584  and  _585
REMARK  242  A    between atoms: _584  and  _587
REMARK  243  A    between atoms: _587  and  _588
REMARK  244  A    between atoms: _590  and  _592
REMARK  245  A    between atoms: _592  and  _593
REMARK  246  A    between atoms: _592  and  _595
REMARK  247  A    between atoms: _595  and  _596
REMARK  248  A    between atoms: _596  and  _597
REMARK  249  A    between atoms: _602  and  _604
REMARK  250  A    between atoms: _604  and  _605
REMARK  251  A    between atoms: _604  and  _607
REMARK  252  A    between atoms: _610  and  _612
REMARK  253  A    between atoms: _612  and  _613
REMARK  254  A    between atoms: _612  and  _615
REMARK  255  A    between atoms: _615  and  _616
REMARK                            x       y       z     vdW  Elec       q    Type
REMARK                         _______ _______ _______ _____ _____    ______ ____
ROOT
ATOM      1  CA  MET A   1      23.800  -4.834  -1.623  0.00  0.00    +0.134 C 
ENDROOT
BRANCH   1   2
ATOM      2  N   MET A   1      24.569  -5.215  -2.807  0.00  0.00    -0.239 NA
ATOM      3  H   MET A   1      24.570  -4.582  -3.632  0.00  0.00    +0.142 HD
ENDBRANCH   1   2
BRANCH   1   4
ATOM      4  C   MET A   1      22.365  -4.582  -2.042  0.00  0.00    +0.224 C 
ATOM      5  O   MET A   1      21.653  -3.813  -1.406  0.00  0.00    -0.287 OA
ENDBRANCH   1   4
BRANCH   1   6
ATOM      6  CB  MET A   1      24.343  -3.542  -1.016  0.00  0.00    +0.037 C 
BRANCH   6   7
ATOM      7  CG  MET A   1      25.833  -3.507  -0.787  0.00  0.00    +0.059 C 
BRANCH   7   8
ATOM      8  SD  MET A   1      26.358  -1.859  -0.265  0.00  0.00    -0.139 S 
ATOM      9  CE  MET A   1      25.746  -1.828   1.378  0.00  0.00    +0.069 C 
ENDBRANCH   7   8
ENDBRANCH   6   7
ENDBRANCH   1   6
TORSDOF 5
REMARK  Name = ../refined-set-2016/3b67/3b67_pocket.pdb
REMARK  255 active torsions:
REMARK  status: ('A' for Active; 'I' for Inactive)
REMARK    1  A    between atoms: _1  and  _3
REMARK    2  A    between atoms: _3  and  _4
REMARK    3  A    between atoms: _3  and  _6
REMARK    4  A    between atoms: _9  and  _11
REMARK    5  A    between atoms: _11  and  _12
REMARK    6  A    between atoms: _15  and  _17
REMARK    7  A    between atoms: _17  and  _18
REMARK    8  A    between atoms: _17  and  _20
REMARK    9  A    between atoms: _20  and  _21
REMARK   10  A    between atoms: _24  and  _26
REMARK   11  A    between atoms: _26  and  _27
REMARK   12  A    between atoms: _26  and  _29
REMARK   13  A    between atoms: _29  and  _30
REMARK   14  A    between atoms: _33  and  _35
REMARK   15  A    between atoms: _35  and  _36
REMARK   16  A    between atoms: _35  and  _38
REMARK   17  A    between atoms: _38  and  _39
REMARK   18  A    between atoms: _41  and  _43
REMARK   19  A    between atoms: _43  and  _44
REMARK   20  A    between atoms: _43  and  _46
REMARK   21  A    between atoms: _46  and  _47
REMARK   22  A    between atoms: _49  and  _51
REMARK   23  A    between atoms: _51  and  _52
REMARK   24  A    between atoms: _51  and  _54
REMARK   25  A    between atoms: _54  and  _55
REMARK   26  A    between atoms: _58  and  _60
REMARK   27  A    between atoms: _60  and  _61
REMARK   28  A    between atoms: _60  and  _63
REMARK   29  A    between atoms: _63  and  _64
REMARK   30  A    between atoms: _69  and  _71
REMARK   31  A    between atoms: _71  and  _72
REMARK   32  A    between atoms: _71  and  _74
REMARK   33  A    between atoms: _74  and  _75
REMARK   34  A    between atoms: _75  and  _76
REMARK   35  A    between atoms: _79  and  _81
REMARK   36  A    between atoms: _81  and  _82
REMARK   37  A    between atoms: _81  and  _84
REMARK   38  A    between atoms: _84  and  _85
REMARK   39  A    between atoms: _88  and  _90
REMARK   40  A    between atoms: _90  and  _91
REMARK   41  A    between atoms: _93  and  _95
REMARK   42  A    between atoms: _95  and  _96
REMARK   43  A    between atoms: _95  and  _98
REMARK   44  A    between atoms: _98  and  _99
REMARK   45  A    between atoms: _99  and  _100
REMARK   46  A    between atoms: _103  and  _105
REMARK   47  A    between atoms: _105  and  _106
REMARK   48  A    between atoms: _105  and  _108
REMARK   49  A    between atoms: _108  and  _109
REMARK   50  A    between atoms: _109  and  _110
REMARK   51  A    between atoms: _110  and  _111
REMARK   52  A    between atoms: _120  and  _122
REMARK   53  A    between atoms: _122  and  _123
REMARK   54  A    between atoms: _122  and  _125
REMARK   55  A    between atoms: _125  and  _126
REMARK   56  A    between atoms: _126  and  _127
REMARK   57  A    between atoms: _132  and  _134
REMARK   58  A    between atoms: _134  and  _135
REMARK   59  A    between atoms: _134  and  _137
REMARK   60  A    between atoms: _137  and  _138
REMARK   61  A    between atoms: _141  and  _143
REMARK   62  A    between atoms: _143  and  _144
REMARK   63  A    between atoms: _143  and  _146
REMARK   64  A    between atoms: _149  and  _151
REMARK   65  A    between atoms: _151  and  _152
REMARK   66  A    between atoms: _151  and  _154
REMARK   67  A    between atoms: _154  and  _155
REMARK   68  A    between atoms: _158  and  _160
REMARK   69  A    between atoms: _160  and  _161
REMARK   70  A    between atoms: _160  and  _163
REMARK   71  A    between atoms: _163  and  _164
REMARK   72  A    between atoms: _164  and  _165
REMARK   73  A    between atoms: _170  and  _172
REMARK   74  A    between atoms: _172  and  _173
REMARK   75  A    between atoms: _172  and  _175
REMARK   76  A    between atoms: _175  and  _176
REMARK   77  A    between atoms: _181  and  _182
REMARK   78  A    between atoms: _184  and  _186
REMARK   79  A    between atoms: _186  and  _187
REMARK   80  A    between atoms: _186  and  _189
REMARK   81  A    between atoms: _189  and  _190
REMARK   82  A    between atoms: _192  and  _194
REMARK   83  A    between atoms: _194  and  _195
REMARK   84  A    between atoms: _194  and  _197
REMARK   85  A    between atoms: _197  and  _198
REMARK   86  A    between atoms: _208  and  _210
REMARK   87  A    between atoms: _210  and  _211
REMARK   88  A    between atoms: _210  and  _213
REMARK   89  A    between atoms: _213  and  _214
REMARK   90  A    between atoms: _214  and  _215
REMARK   91  A    between atoms: _217  and  _219
REMARK   92  A    between atoms: _219  and  _220
REMARK   93  A    between atoms: _222  and  _224
REMARK   94  A    between atoms: _224  and  _225
REMARK   95  A    between atoms: _224  and  _227
REMARK   96  A    between atoms: _227  and  _228
REMARK   97  A    between atoms: _231  and  _233
REMARK   98  A    between atoms: _233  and  _234
REMARK   99  A    between atoms: _233  and  _236
REMARK  100  A    between atoms: _236  and  _237
REMARK  101  A    between atoms: _237  and  _238
REMARK  102  A    between atoms: _240  and  _242
REMARK  103  A    between atoms: _242  and  _243
REMARK  104  A    between atoms: _242  and  _245
REMARK  105  A    between atoms: _248  and  _250
REMARK  106  A    between atoms: _250  and  _251
REMARK  107  A    between atoms: _250  and  _253
REMARK  108  A    between atoms: _253  and  _254
REMARK  109  A    between atoms: _260  and  _262
REMARK  110  A    between atoms: _262  and  _263
REMARK  111  A    between atoms: _266  and  _268
REMARK  112  A    between atoms: _268  and  _269
REMARK  113  A    between atoms: _268  and  _271
REMARK  114  A    between atoms: _271  and  _272
REMARK  115  A    between atoms: _272  and  _273
REMARK  116  A    between atoms: _275  and  _277
REMARK  117  A    between atoms: _277  and  _278
REMARK  118  A    between atoms: _280  and  _282
REMARK  119  A    between atoms: _282  and  _283
REMARK  120  A    between atoms: _282  and  _285
REMARK  121  A    between atoms: _285  and  _286
REMARK  122  A    between atoms: _296  and  _298
REMARK  123  A    between atoms: _298  and  _299
REMARK  124  A    between atoms: _298  and  _301
REMARK  125  A    between atoms: _301  and  _302
REMARK  126  A    between atoms: _302  and  _303
REMARK  127  A    between atoms: _303  and  _304
REMARK  128  A    between atoms: _313  and  _315
REMARK  129  A    between atoms: _315  and  _316
REMARK  130  A    between atoms: _315  and  _318
REMARK  131  A    between atoms: _318  and  _319
REMARK  132  A    between atoms: _321  and  _323
REMARK  133  A    between atoms: _323  and  _324
REMARK  134  A    between atoms: _323  and  _326
REMARK  135  A    between atoms: _326  and  _327
REMARK  136  A    between atoms: _330  and  _332
REMARK  137  A    between atoms: _332  and  _333
REMARK  138  A    between atoms: _332  and  _335
REMARK  139  A    between atoms: _335  and  _336
REMARK  140  A    between atoms: _341  and  _342
REMARK  141  A    between atoms: _344  and  _346
REMARK  142  A    between atoms: _346  and  _347
REMARK  143  A    between atoms: _346  and  _349
REMARK  144  A    between atoms: _349  and  _350
REMARK  145  A    between atoms: _356  and  _358
REMARK  146  A    between atoms: _358  and  _359
REMARK  147  A    between atoms: _362  and  _364
REMARK  148  A    between atoms: _364  and  _365
REMARK  149  A    between atoms: _364  and  _367
REMARK  150  A    between atoms: _367  and  _368
REMARK  151  A    between atoms: _371  and  _373
REMARK  152  A    between atoms: _373  and  _374
REMARK  153  A    between atoms: _373  and  _376
REMARK  154  A    between atoms: _376  and  _377
REMARK  155  A    between atoms: _377  and  _378
REMARK  156  A    between atoms: _380  and  _382
REMARK  157  A    between atoms: _382  and  _383
REMARK  158  A    between atoms: _382  and  _385
REMARK  159  A    between atoms: _385  and  _386
REMARK  160  A    between atoms: _386  and  _387
REMARK  161  A    between atoms: _392  and  _394
REMARK  162  A    between atoms: _394  and  _395
REMARK  163  A    between atoms: _394  and  _397
REMARK  164  A    between atoms: _399  and  _401
REMARK  165  A    between atoms: _401  and  _402
REMARK  166  A    between atoms: _401  and  _404
REMARK  167  A    between atoms: _404  and  _405
REMARK  168  A    between atoms: _405  and  _406
REMARK  169  A    between atoms: _408  and  _410
REMARK  170  A    between atoms: _410  and  _411
REMARK  171  A    between atoms: _410  and  _413
REMARK  172  A    between atoms: _413  and  _414
REMARK  173  A    between atoms: _417  and  _419
REMARK  174  A    between atoms: _419  and  _420
REMARK  175  A    between atoms: _423  and  _425
REMARK  176  A    between atoms: _425  and  _426
REMARK  177  A    between atoms: _425  and  _428
REMARK  178  A    between atoms: _428  and  _429
REMARK  179  A    between atoms: _432  and  _434
REMARK  180  A    between atoms: _434  and  _435
REMARK  181  A    between atoms: _434  and  _437
REMARK  182  A    between atoms: _437  and  _438
REMARK  183  A    between atoms: _443  and  _445
REMARK  184  A    between atoms: _445  and  _446
REMARK  185  A    between atoms: _445  and  _448
REMARK  186  A    between atoms: _448  and  _449
REMARK  187  A    between atoms: _455  and  _457
REMARK  188  A    between atoms: _457  and  _458
REMARK  189  A    between atoms: _457  and  _460
REMARK  190  A    between atoms: _460  and  _461
REMARK  191  A    between atoms: _464  and  _466
REMARK  192  A    between atoms: _466  and  _467
REMARK  193  A    between atoms: _466  and  _469
REMARK  194  A    between atoms: _469  and  _470
REMARK  195  A    between atoms: _476  and  _478
REMARK  196  A    between atoms: _478  and  _479
REMARK  197  A    between atoms: _478  and  _481
REMARK  198  A    between atoms: _481  and  _482
REMARK  199  A    between atoms: _485  and  _487
REMARK  200  A    between atoms: _487  and  _488
REMARK  201  A    between atoms: _487  and  _490
REMARK  202  A    between atoms: _490  and  _491
REMARK  203  A    between atoms: _494  and  _496
REMARK  204  A    between atoms: _496  and  _497
REMARK  205  A    between atoms: _496  and  _499
REMARK  206  A    between atoms: _502  and  _504
REMARK  207  A    between atoms: _504  and  _505
REMARK  208  A    between atoms: _504  and  _507
REMARK  209  A    between atoms: _507  and  _508
REMARK  210  A    between atoms: _511  and  _513
REMARK  211  A    between atoms: _513  and  _514
REMARK  212  A    between atoms: _513  and  _516
REMARK  213  A    between atoms: _516  and  _517
REMARK  214  A    between atoms: _524  and  _525
REMARK  215  A    between atoms: _530  and  _532
REMARK  216  A    between atoms: _532  and  _533
REMARK  217  A    between atoms: _532  and  _535
REMARK  218  A    between atoms: _535  and  _536
REMARK  219  A    between atoms: _536  and  _537
REMARK  220  A    between atoms: _539  and  _541
REMARK  221  A    between atoms: _541  and  _542
REMARK  222  A    between atoms: _541  and  _544
REMARK  223  A    between atoms: _544  and  _545
REMARK  224  A    between atoms: _545  and  _546
REMARK  225  A    between atoms: _548  and  _550
REMARK  226  A    between atoms: _550  and  _551
REMARK  227  A    between atoms: _554  and  _556
REMARK  228  A    between atoms: _556  and  _557
REMARK  229  A    between atoms: _556  and  _559
REMARK  230  A    between atoms: _559  and  _560
REMARK  231  A    between atoms: _560  and  _561
REMARK  232  A    between atoms: _564  and  _566
REMARK  233  A    between atoms: _566  and  _567
REMARK  234  A    between atoms: _566  and  _569
REMARK  235  A    between atoms: _569  and  _570
REMARK  236  A    between atoms: _573  and  _575
REMARK  237  A    between atoms: _575  and  _576
REMARK  238  A    between atoms: _575  and  _578
REMARK  239  A    between atoms: _578  and  _579
REMARK  240  A    between atoms: _582  and  _584
REMARK  241  A    between atoms: _584  and  _585
REMARK  242  A    between atoms: _584  and  _587
REMARK  243  A    between atoms: _587  and  _588
REMARK  244  A    between atoms: _590  and  _592
REMARK  245  A    between atoms: _592  and  _593
REMARK  246  A    between atoms: _592  and  _595
REMARK  247  A    between atoms: _595  and  _596
REMARK  248  A    between atoms: _596  and  _597
REMARK  249  A    between atoms: _602  and  _604
REMARK  250  A    between atoms: _604  and  _605
REMARK  251  A    between atoms: _604  and  _607
REMARK  252  A    between atoms: _610  and  _612
REMARK  253  A    between atoms: _612  and  _613
REMARK  254  A    between atoms: _612  and  _615
REMARK  255  A    between atoms: _615  and  _616
REMARK                            x       y       z     vdW  Elec       q    Type
REMARK                         _______ _______ _______ _____ _____    ______ ____
ROOT
ATOM      1  CA  GLN A   1      19.376  -3.874   1.561  0.00  0.00    +0.145 C 
ENDROOT
BRANCH   1   2
ATOM      2  C   GLN A   1      18.982  -2.542   0.931  0.00  0.00    +0.238 C 
ATOM      3  O   GLN A   1      18.243  -1.761   1.528  0.00  0.00    -0.274 OA
ATOM      4  N   CYS A   2      19.470  -2.285  -0.283  0.00  0.00    -0.298 N 
ATOM      5  H   CYS A   2      20.093  -2.980  -0.742  0.00  0.00    +0.150 HD
BRANCH   4   6
ATOM      6  CA  CYS A   2      19.144  -1.045  -0.976  0.00  0.00    +0.149 C 
BRANCH   6   7
ATOM      7  C   CYS A   2      17.645  -0.940  -1.234  0.00  0.00    +0.228 C 
ATOM      8  O   CYS A   2      17.057   0.137  -1.102  0.00  0.00    -0.286 OA
ENDBRANCH   6   7
BRANCH   6   9
ATOM      9  CB  CYS A   2      19.906  -0.956  -2.303  0.00  0.00    +0.096 C 
ATOM     10  SG  CYS A   2      21.660  -0.528  -2.107  0.00  0.00    -0.080 S 
ENDBRANCH   6   9
ENDBRANCH   4   6
ENDBRANCH   1   2
BRANCH   1  11
ATOM     11  N   GLN A   1      19.371  -4.932   0.560  0.00  0.00    -0.238 NA
ATOM     12  H   GLN A   1      20.267  -5.359   0.248  0.00  0.00    +0.142 HD
ENDBRANCH   1  11
BRANCH   1  13
ATOM     13  CB  GLN A   1      20.752  -3.762   2.231  0.00  0.00    +0.036 C 
BRANCH  13  14
ATOM     14  CG  GLN A   1      21.214  -5.033   2.947  0.00  0.00    +0.087 C 
BRANCH  14  15
ATOM     15  CD  GLN A   1      22.034  -5.934   2.049  0.00  0.00    +0.219 C 
ATOM     16  NE2 GLN A   1      22.896  -6.739   2.647  0.00  0.00    -0.329 N 
ATOM     17 HE21 GLN A   1      22.991  -6.722   3.682  0.00  0.00    +0.145 HD
ATOM     18 HE22 GLN A   1      23.479  -7.389   2.082  0.00  0.00    +0.145 HD
ATOM     19  OE1 GLN A   1      21.883  -5.915   0.830  0.00  0.00    -0.275 OA
ENDBRANCH  14  15
ENDBRANCH  13  14
ENDBRANCH   1  13
TORSDOF 8
REMARK  Name = ../refined-set-2016/3b67/3b67_pocket.pdb
REMARK  255 active torsions:
REMARK  status: ('A' for Active; 'I' for Inactive)
REMARK    1  A    between atoms: _1  and  _3
REMARK    2  A    between atoms: _3  and  _4
REMARK    3  A    between atoms: _3  and  _6
REMARK    4  A    between atoms: _9  and  _11
REMARK    5  A    between atoms: _11  and  _12
REMARK    6  A    between atoms: _15  and  _17
REMARK    7  A    between atoms: _17  and  _18
REMARK    8  A    between atoms: _17  and  _20
REMARK    9  A    between atoms: _20  and  _21
REMARK   10  A    between atoms: _24  and  _26
REMARK   11  A    between atoms: _26  and  _27
REMARK   12  A    between atoms: _26  and  _29
REMARK   13  A    between atoms: _29  and  _30
REMARK   14  A    between atoms: _33  and  _35
REMARK   15  A    between atoms: _35  and  _36
REMARK   16  A    between atoms: _35  and  _38
REMARK   17  A    between atoms: _38  and  _39
REMARK   18  A    between atoms: _41  and  _43
REMARK   19  A    between atoms: _43  and  _44
REMARK   20  A    between atoms: _43  and  _46
REMARK   21  A    between atoms: _46  and  _47
REMARK   22  A    between atoms: _49  and  _51
REMARK   23  A    between atoms: _51  and  _52
REMARK   24  A    between atoms: _51  and  _54
REMARK   25  A    between atoms: _54  and  _55
REMARK   26  A    between atoms: _58  and  _60
REMARK   27  A    between atoms: _60  and  _61
REMARK   28  A    between atoms: _60  and  _63
REMARK   29  A    between atoms: _63  and  _64
REMARK   30  A    between atoms: _69  and  _71
REMARK   31  A    between atoms: _71  and  _72
REMARK   32  A    between atoms: _71  and  _74
REMARK   33  A    between atoms: _74  and  _75
REMARK   34  A    between atoms: _75  and  _76
REMARK   35  A    between atoms: _79  and  _81
REMARK   36  A    between atoms: _81  and  _82
REMARK   37  A    between atoms: _81  and  _84
REMARK   38  A    between atoms: _84  and  _85
REMARK   39  A    between atoms: _88  and  _90
REMARK   40  A    between atoms: _90  and  _91
REMARK   41  A    between atoms: _93  and  _95
REMARK   42  A    between atoms: _95  and  _96
REMARK   43  A    between atoms: _95  and  _98
REMARK   44  A    between atoms: _98  and  _99
REMARK   45  A    between atoms: _99  and  _100
REMARK   46  A    between atoms: _103  and  _105
REMARK   47  A    between atoms: _105  and  _106
REMARK   48  A    between atoms: _105  and  _108
REMARK   49  A    between atoms: _108  and  _109
REMARK   50  A    between atoms: _109  and  _110
REMARK   51  A    between atoms: _110  and  _111
REMARK   52  A    between atoms: _120  and  _122
REMARK   53  A    between atoms: _122  and  _123
REMARK   54  A    between atoms: _122  and  _125
REMARK   55  A    between atoms: _125  and  _126
REMARK   56  A    between atoms: _126  and  _127
REMARK   57  A    between atoms: _132  and  _134
REMARK   58  A    between atoms: _134  and  _135
REMARK   59  A    between atoms: _134  and  _137
REMARK   60  A    between atoms: _137  and  _138
REMARK   61  A    between atoms: _141  and  _143
REMARK   62  A    between atoms: _143  and  _144
REMARK   63  A    between atoms: _143  and  _146
REMARK   64  A    between atoms: _149  and  _151
REMARK   65  A    between atoms: _151  and  _152
REMARK   66  A    between atoms: _151  and  _154
REMARK   67  A    between atoms: _154  and  _155
REMARK   68  A    between atoms: _158  and  _160
REMARK   69  A    between atoms: _160  and  _161
REMARK   70  A    between atoms: _160  and  _163
REMARK   71  A    between atoms: _163  and  _164
REMARK   72  A    between atoms: _164  and  _165
REMARK   73  A    between atoms: _170  and  _172
REMARK   74  A    between atoms: _172  and  _173
REMARK   75  A    between atoms: _172  and  _175
REMARK   76  A    between atoms: _175  and  _176
REMARK   77  A    between atoms: _181  and  _182
REMARK   78  A    between atoms: _184  and  _186
REMARK   79  A    between atoms: _186  and  _187
REMARK   80  A    between atoms: _186  and  _189
REMARK   81  A    between atoms: _189  and  _190
REMARK   82  A    between atoms: _192  and  _194
REMARK   83  A    between atoms: _194  and  _195
REMARK   84  A    between atoms: _194  and  _197
REMARK   85  A    between atoms: _197  and  _198
REMARK   86  A    between atoms: _208  and  _210
REMARK   87  A    between atoms: _210  and  _211
REMARK   88  A    between atoms: _210  and  _213
REMARK   89  A    between atoms: _213  and  _214
REMARK   90  A    between atoms: _214  and  _215
REMARK   91  A    between atoms: _217  and  _219
REMARK   92  A    between atoms: _219  and  _220
REMARK   93  A    between atoms: _222  and  _224
REMARK   94  A    between atoms: _224  and  _225
REMARK   95  A    between atoms: _224  and  _227
REMARK   96  A    between atoms: _227  and  _228
REMARK   97  A    between atoms: _231  and  _233
REMARK   98  A    between atoms: _233  and  _234
REMARK   99  A    between atoms: _233  and  _236
REMARK  100  A    between atoms: _236  and  _237
REMARK  101  A    between atoms: _237  and  _238
REMARK  102  A    between atoms: _240  and  _242
REMARK  103  A    between atoms: _242  and  _243
REMARK  104  A    between atoms: _242  and  _245
REMARK  105  A    between atoms: _248  and  _250
REMARK  106  A    between atoms: _250  and  _251
REMARK  107  A    between atoms: _250  and  _253
REMARK  108  A    between atoms: _253  and  _254
REMARK  109  A    between atoms: _260  and  _262
REMARK  110  A    between atoms: _262  and  _263
REMARK  111  A    between atoms: _266  and  _268
REMARK  112  A    between atoms: _268  and  _269
REMARK  113  A    between atoms: _268  and  _271
REMARK  114  A    between atoms: _271  and  _272
REMARK  115  A    between atoms: _272  and  _273
REMARK  116  A    between atoms: _275  and  _277
REMARK  117  A    between atoms: _277  and  _278
REMARK  118  A    between atoms: _280  and  _282
REMARK  119  A    between atoms: _282  and  _283
REMARK  120  A    between atoms: _282  and  _285
REMARK  121  A    between atoms: _285  and  _286
REMARK  122  A    between atoms: _296  and  _298
REMARK  123  A    between atoms: _298  and  _299
REMARK  124  A    between atoms: _298  and  _301
REMARK  125  A    between atoms: _301  and  _302
REMARK  126  A    between atoms: _302  and  _303
REMARK  127  A    between atoms: _303  and  _304
REMARK  128  A    between atoms: _313  and  _315
REMARK  129  A    between atoms: _315  and  _316
REMARK  130  A    between atoms: _315  and  _318
REMARK  131  A    between atoms: _318  and  _319
REMARK  132  A    between atoms: _321  and  _323
REMARK  133  A    between atoms: _323  and  _324
REMARK  134  A    between atoms: _323  and  _326
REMARK  135  A    between atoms: _326  and  _327
REMARK  136  A    between atoms: _330  and  _332
REMARK  137  A    between atoms: _332  and  _333
REMARK  138  A    between atoms: _332  and  _335
REMARK  139  A    between atoms: _335  and  _336
REMARK  140  A    between atoms: _341  and  _342
REMARK  141  A    between atoms: _344  and  _346
REMARK  142  A    between atoms: _346  and  _347
REMARK  143  A    between atoms: _346  and  _349
REMARK  144  A    between atoms: _349  and  _350
REMARK  145  A    between atoms: _356  and  _358
REMARK  146  A    between atoms: _358  and  _359
REMARK  147  A    between atoms: _362  and  _364
REMARK  148  A    between atoms: _364  and  _365
REMARK  149  A    between atoms: _364  and  _367
REMARK  150  A    between atoms: _367  and  _368
REMARK  151  A    between atoms: _371  and  _373
REMARK  152  A    between atoms: _373  and  _374
REMARK  153  A    between atoms: _373  and  _376
REMARK  154  A    between atoms: _376  and  _377
REMARK  155  A    between atoms: _377  and  _378
REMARK  156  A    between atoms: _380  and  _382
REMARK  157  A    between atoms: _382  and  _383
REMARK  158  A    between atoms: _382  and  _385
REMARK  159  A    between atoms: _385  and  _386
REMARK  160  A    between atoms: _386  and  _387
REMARK  161  A    between atoms: _392  and  _394
REMARK  162  A    between atoms: _394  and  _395
REMARK  163  A    between atoms: _394  and  _397
REMARK  164  A    between atoms: _399  and  _401
REMARK  165  A    between atoms: _401  and  _402
REMARK  166  A    between atoms: _401  and  _404
REMARK  167  A    between atoms: _404  and  _405
REMARK  168  A    between atoms: _405  and  _406
REMARK  169  A    between atoms: _408  and  _410
REMARK  170  A    between atoms: _410  and  _411
REMARK  171  A    between atoms: _410  and  _413
REMARK  172  A    between atoms: _413  and  _414
REMARK  173  A    between atoms: _417  and  _419
REMARK  174  A    between atoms: _419  and  _420
REMARK  175  A    between atoms: _423  and  _425
REMARK  176  A    between atoms: _425  and  _426
REMARK  177  A    between atoms: _425  and  _428
REMARK  178  A    between atoms: _428  and  _429
REMARK  179  A    between atoms: _432  and  _434
REMARK  180  A    between atoms: _434  and  _435
REMARK  181  A    between atoms: _434  and  _437
REMARK  182  A    between atoms: _437  and  _438
REMARK  183  A    between atoms: _443  and  _445
REMARK  184  A    between atoms: _445  and  _446
REMARK  185  A    between atoms: _445  and  _448
REMARK  186  A    between atoms: _448  and  _449
REMARK  187  A    between atoms: _455  and  _457
REMARK  188  A    between atoms: _457  and  _458
REMARK  189  A    between atoms: _457  and  _460
REMARK  190  A    between atoms: _460  and  _461
REMARK  191  A    between atoms: _464  and  _466
REMARK  192  A    between atoms: _466  and  _467
REMARK  193  A    between atoms: _466  and  _469
REMARK  194  A    between atoms: _469  and  _470
REMARK  195  A    between atoms: _476  and  _478
REMARK  196  A    between atoms: _478  and  _479
REMARK  197  A    between atoms: _478  and  _481
REMARK  198  A    between atoms: _481  and  _482
REMARK  199  A    between atoms: _485  and  _487
REMARK  200  A    between atoms: _487  and  _488
REMARK  201  A    between atoms: _487  and  _490
REMARK  202  A    between atoms: _490  and  _491
REMARK  203  A    between atoms: _494  and  _496
REMARK  204  A    between atoms: _496  and  _497
REMARK  205  A    between atoms: _496  and  _499
REMARK  206  A    between atoms: _502  and  _504
REMARK  207  A    between atoms: _504  and  _505
REMARK  208  A    between atoms: _504  and  _507
REMARK  209  A    between atoms: _507  and  _508
REMARK  210  A    between atoms: _511  and  _513
REMARK  211  A    between atoms: _513  and  _514
REMARK  212  A    between atoms: _513  and  _516
REMARK  213  A    between atoms: _516  and  _517
REMARK  214  A    between atoms: _524  and  _525
REMARK  215  A    between atoms: _530  and  _532
REMARK  216  A    between atoms: _532  and  _533
REMARK  217  A    between atoms: _532  and  _535
REMARK  218  A    between atoms: _535  and  _536
REMARK  219  A    between atoms: _536  and  _537
REMARK  220  A    between atoms: _539  and  _541
REMARK  221  A    between atoms: _541  and  _542
REMARK  222  A    between atoms: _541  and  _544
REMARK  223  A    between atoms: _544  and  _545
REMARK  224  A    between atoms: _545  and  _546
REMARK  225  A    between atoms: _548  and  _550
REMARK  226  A    between atoms: _550  and  _551
REMARK  227  A    between atoms: _554  and  _556
REMARK  228  A    between atoms: _556  and  _557
REMARK  229  A    between atoms: _556  and  _559
REMARK  230  A    between atoms: _559  and  _560
REMARK  231  A    between atoms: _560  and  _561
REMARK  232  A    between atoms: _564  and  _566
REMARK  233  A    between atoms: _566  and  _567
REMARK  234  A    between atoms: _566  and  _569
REMARK  235  A    between atoms: _569  and  _570
REMARK  236  A    between atoms: _573  and  _575
REMARK  237  A    between atoms: _575  and  _576
REMARK  238  A    between atoms: _575  and  _578
REMARK  239  A    between atoms: _578  and  _579
REMARK  240  A    between atoms: _582  and  _584
REMARK  241  A    between atoms: _584  and  _585
REMARK  242  A    between atoms: _584  and  _587
REMARK  243  A    between atoms: _587  and  _588
REMARK  244  A    between atoms: _590  and  _592
REMARK  245  A    between atoms: _592  and  _593
REMARK  246  A    between atoms: _592  and  _595
REMARK  247  A    between atoms: _595  and  _596
REMARK  248  A    between atoms: _596  and  _597
REMARK  249  A    between atoms: _602  and  _604
REMARK  250  A    between atoms: _604  and  _605
REMARK  251  A    between atoms: _604  and  _607
REMARK  252  A    between atoms: _610  and  _612
REMARK  253  A    between atoms: _612  and  _613
REMARK  254  A    between atoms: _612  and  _615
REMARK  255  A    between atoms: _615  and  _616
REMARK                            x       y       z     vdW  Elec       q    Type
REMARK                         _______ _______ _______ _____ _____    ______ ____
ROOT
ATOM      1  CA  MET A   1      16.091   1.434   2.152  0.00  0.00    +0.134 C 
ENDROOT
BRANCH   1   2
ATOM      2  N   MET A   1      15.860   0.020   1.884  0.00  0.00    -0.239 NA
ATOM      3  H   MET A   1      16.628  -0.555   1.482  0.00  0.00    +0.142 HD
ENDBRANCH   1   2
BRANCH   1   4
ATOM      4  C   MET A   1      15.274   2.323   1.214  0.00  0.00    +0.224 C 
ATOM      5  O   MET A   1      14.814   3.397   1.615  0.00  0.00    -0.287 OA
ENDBRANCH   1   4
BRANCH   1   6
ATOM      6  CB  MET A   1      17.583   1.760   2.038  0.00  0.00    +0.037 C 
BRANCH   6   7
ATOM      7  CG  MET A   1      18.404   1.110   3.132  0.00  0.00    +0.059 C 
BRANCH   7   8
ATOM      8  SD  MET A   1      20.090   1.737   3.253  0.00  0.00    -0.139 S 
ATOM      9  CE  MET A   1      20.865   0.853   1.910  0.00  0.00    +0.069 C 
ENDBRANCH   7   8
ENDBRANCH   6   7
ENDBRANCH   1   6
TORSDOF 5
REMARK  Name = ../refined-set-2016/3b67/3b67_pocket.pdb
REMARK  255 active torsions:
REMARK  status: ('A' for Active; 'I' for Inactive)
REMARK    1  A    between atoms: _1  and  _3
REMARK    2  A    between atoms: _3  and  _4
REMARK    3  A    between atoms: _3  and  _6
REMARK    4  A    between atoms: _9  and  _11
REMARK    5  A    between atoms: _11  and  _12
REMARK    6  A    between atoms: _15  and  _17
REMARK    7  A    between atoms: _17  and  _18
REMARK    8  A    between atoms: _17  and  _20
REMARK    9  A    between atoms: _20  and  _21
REMARK   10  A    between atoms: _24  and  _26
REMARK   11  A    between atoms: _26  and  _27
REMARK   12  A    between atoms: _26  and  _29
REMARK   13  A    between atoms: _29  and  _30
REMARK   14  A    between atoms: _33  and  _35
REMARK   15  A    between atoms: _35  and  _36
REMARK   16  A    between atoms: _35  and  _38
REMARK   17  A    between atoms: _38  and  _39
REMARK   18  A    between atoms: _41  and  _43
REMARK   19  A    between atoms: _43  and  _44
REMARK   20  A    between atoms: _43  and  _46
REMARK   21  A    between atoms: _46  and  _47
REMARK   22  A    between atoms: _49  and  _51
REMARK   23  A    between atoms: _51  and  _52
REMARK   24  A    between atoms: _51  and  _54
REMARK   25  A    between atoms: _54  and  _55
REMARK   26  A    between atoms: _58  and  _60
REMARK   27  A    between atoms: _60  and  _61
REMARK   28  A    between atoms: _60  and  _63
REMARK   29  A    between atoms: _63  and  _64
REMARK   30  A    between atoms: _69  and  _71
REMARK   31  A    between atoms: _71  and  _72
REMARK   32  A    between atoms: _71  and  _74
REMARK   33  A    between atoms: _74  and  _75
REMARK   34  A    between atoms: _75  and  _76
REMARK   35  A    between atoms: _79  and  _81
REMARK   36  A    between atoms: _81  and  _82
REMARK   37  A    between atoms: _81  and  _84
REMARK   38  A    between atoms: _84  and  _85
REMARK   39  A    between atoms: _88  and  _90
REMARK   40  A    between atoms: _90  and  _91
REMARK   41  A    between atoms: _93  and  _95
REMARK   42  A    between atoms: _95  and  _96
REMARK   43  A    between atoms: _95  and  _98
REMARK   44  A    between atoms: _98  and  _99
REMARK   45  A    between atoms: _99  and  _100
REMARK   46  A    between atoms: _103  and  _105
REMARK   47  A    between atoms: _105  and  _106
REMARK   48  A    between atoms: _105  and  _108
REMARK   49  A    between atoms: _108  and  _109
REMARK   50  A    between atoms: _109  and  _110
REMARK   51  A    between atoms: _110  and  _111
REMARK   52  A    between atoms: _120  and  _122
REMARK   53  A    between atoms: _122  and  _123
REMARK   54  A    between atoms: _122  and  _125
REMARK   55  A    between atoms: _125  and  _126
REMARK   56  A    between atoms: _126  and  _127
REMARK   57  A    between atoms: _132  and  _134
REMARK   58  A    between atoms: _134  and  _135
REMARK   59  A    between atoms: _134  and  _137
REMARK   60  A    between atoms: _137  and  _138
REMARK   61  A    between atoms: _141  and  _143
REMARK   62  A    between atoms: _143  and  _144
REMARK   63  A    between atoms: _143  and  _146
REMARK   64  A    between atoms: _149  and  _151
REMARK   65  A    between atoms: _151  and  _152
REMARK   66  A    between atoms: _151  and  _154
REMARK   67  A    between atoms: _154  and  _155
REMARK   68  A    between atoms: _158  and  _160
REMARK   69  A    between atoms: _160  and  _161
REMARK   70  A    between atoms: _160  and  _163
REMARK   71  A    between atoms: _163  and  _164
REMARK   72  A    between atoms: _164  and  _165
REMARK   73  A    between atoms: _170  and  _172
REMARK   74  A    between atoms: _172  and  _173
REMARK   75  A    between atoms: _172  and  _175
REMARK   76  A    between atoms: _175  and  _176
REMARK   77  A    between atoms: _181  and  _182
REMARK   78  A    between atoms: _184  and  _186
REMARK   79  A    between atoms: _186  and  _187
REMARK   80  A    between atoms: _186  and  _189
REMARK   81  A    between atoms: _189  and  _190
REMARK   82  A    between atoms: _192  and  _194
REMARK   83  A    between atoms: _194  and  _195
REMARK   84  A    between atoms: _194  and  _197
REMARK   85  A    between atoms: _197  and  _198
REMARK   86  A    between atoms: _208  and  _210
REMARK   87  A    between atoms: _210  and  _211
REMARK   88  A    between atoms: _210  and  _213
REMARK   89  A    between atoms: _213  and  _214
REMARK   90  A    between atoms: _214  and  _215
REMARK   91  A    between atoms: _217  and  _219
REMARK   92  A    between atoms: _219  and  _220
REMARK   93  A    between atoms: _222  and  _224
REMARK   94  A    between atoms: _224  and  _225
REMARK   95  A    between atoms: _224  and  _227
REMARK   96  A    between atoms: _227  and  _228
REMARK   97  A    between atoms: _231  and  _233
REMARK   98  A    between atoms: _233  and  _234
REMARK   99  A    between atoms: _233  and  _236
REMARK  100  A    between atoms: _236  and  _237
REMARK  101  A    between atoms: _237  and  _238
REMARK  102  A    between atoms: _240  and  _242
REMARK  103  A    between atoms: _242  and  _243
REMARK  104  A    between atoms: _242  and  _245
REMARK  105  A    between atoms: _248  and  _250
REMARK  106  A    between atoms: _250  and  _251
REMARK  107  A    between atoms: _250  and  _253
REMARK  108  A    between atoms: _253  and  _254
REMARK  109  A    between atoms: _260  and  _262
REMARK  110  A    between atoms: _262  and  _263
REMARK  111  A    between atoms: _266  and  _268
REMARK  112  A    between atoms: _268  and  _269
REMARK  113  A    between atoms: _268  and  _271
REMARK  114  A    between atoms: _271  and  _272
REMARK  115  A    between atoms: _272  and  _273
REMARK  116  A    between atoms: _275  and  _277
REMARK  117  A    between atoms: _277  and  _278
REMARK  118  A    between atoms: _280  and  _282
REMARK  119  A    between atoms: _282  and  _283
REMARK  120  A    between atoms: _282  and  _285
REMARK  121  A    between atoms: _285  and  _286
REMARK  122  A    between atoms: _296  and  _298
REMARK  123  A    between atoms: _298  and  _299
REMARK  124  A    between atoms: _298  and  _301
REMARK  125  A    between atoms: _301  and  _302
REMARK  126  A    between atoms: _302  and  _303
REMARK  127  A    between atoms: _303  and  _304
REMARK  128  A    between atoms: _313  and  _315
REMARK  129  A    between atoms: _315  and  _316
REMARK  130  A    between atoms: _315  and  _318
REMARK  131  A    between atoms: _318  and  _319
REMARK  132  A    between atoms: _321  and  _323
REMARK  133  A    between atoms: _323  and  _324
REMARK  134  A    between atoms: _323  and  _326
REMARK  135  A    between atoms: _326  and  _327
REMARK  136  A    between atoms: _330  and  _332
REMARK  137  A    between atoms: _332  and  _333
REMARK  138  A    between atoms: _332  and  _335
REMARK  139  A    between atoms: _335  and  _336
REMARK  140  A    between atoms: _341  and  _342
REMARK  141  A    between atoms: _344  and  _346
REMARK  142  A    between atoms: _346  and  _347
REMARK  143  A    between atoms: _346  and  _349
REMARK  144  A    between atoms: _349  and  _350
REMARK  145  A    between atoms: _356  and  _358
REMARK  146  A    between atoms: _358  and  _359
REMARK  147  A    between atoms: _362  and  _364
REMARK  148  A    between atoms: _364  and  _365
REMARK  149  A    between atoms: _364  and  _367
REMARK  150  A    between atoms: _367  and  _368
REMARK  151  A    between atoms: _371  and  _373
REMARK  152  A    between atoms: _373  and  _374
REMARK  153  A    between atoms: _373  and  _376
REMARK  154  A    between atoms: _376  and  _377
REMARK  155  A    between atoms: _377  and  _378
REMARK  156  A    between atoms: _380  and  _382
REMARK  157  A    between atoms: _382  and  _383
REMARK  158  A    between atoms: _382  and  _385
REMARK  159  A    between atoms: _385  and  _386
REMARK  160  A    between atoms: _386  and  _387
REMARK  161  A    between atoms: _392  and  _394
REMARK  162  A    between atoms: _394  and  _395
REMARK  163  A    between atoms: _394  and  _397
REMARK  164  A    between atoms: _399  and  _401
REMARK  165  A    between atoms: _401  and  _402
REMARK  166  A    between atoms: _401  and  _404
REMARK  167  A    between atoms: _404  and  _405
REMARK  168  A    between atoms: _405  and  _406
REMARK  169  A    between atoms: _408  and  _410
REMARK  170  A    between atoms: _410  and  _411
REMARK  171  A    between atoms: _410  and  _413
REMARK  172  A    between atoms: _413  and  _414
REMARK  173  A    between atoms: _417  and  _419
REMARK  174  A    between atoms: _419  and  _420
REMARK  175  A    between atoms: _423  and  _425
REMARK  176  A    between atoms: _425  and  _426
REMARK  177  A    between atoms: _425  and  _428
REMARK  178  A    between atoms: _428  and  _429
REMARK  179  A    between atoms: _432  and  _434
REMARK  180  A    between atoms: _434  and  _435
REMARK  181  A    between atoms: _434  and  _437
REMARK  182  A    between atoms: _437  and  _438
REMARK  183  A    between atoms: _443  and  _445
REMARK  184  A    between atoms: _445  and  _446
REMARK  185  A    between atoms: _445  and  _448
REMARK  186  A    between atoms: _448  and  _449
REMARK  187  A    between atoms: _455  and  _457
REMARK  188  A    between atoms: _457  and  _458
REMARK  189  A    between atoms: _457  and  _460
REMARK  190  A    between atoms: _460  and  _461
REMARK  191  A    between atoms: _464  and  _466
REMARK  192  A    between atoms: _466  and  _467
REMARK  193  A    between atoms: _466  and  _469
REMARK  194  A    between atoms: _469  and  _470
REMARK  195  A    between atoms: _476  and  _478
REMARK  196  A    between atoms: _478  and  _479
REMARK  197  A    between atoms: _478  and  _481
REMARK  198  A    between atoms: _481  and  _482
REMARK  199  A    between atoms: _485  and  _487
REMARK  200  A    between atoms: _487  and  _488
REMARK  201  A    between atoms: _487  and  _490
REMARK  202  A    between atoms: _490  and  _491
REMARK  203  A    between atoms: _494  and  _496
REMARK  204  A    between atoms: _496  and  _497
REMARK  205  A    between atoms: _496  and  _499
REMARK  206  A    between atoms: _502  and  _504
REMARK  207  A    between atoms: _504  and  _505
REMARK  208  A    between atoms: _504  and  _507
REMARK  209  A    between atoms: _507  and  _508
REMARK  210  A    between atoms: _511  and  _513
REMARK  211  A    between atoms: _513  and  _514
REMARK  212  A    between atoms: _513  and  _516
REMARK  213  A    between atoms: _516  and  _517
REMARK  214  A    between atoms: _524  and  _525
REMARK  215  A    between atoms: _530  and  _532
REMARK  216  A    between atoms: _532  and  _533
REMARK  217  A    between atoms: _532  and  _535
REMARK  218  A    between atoms: _535  and  _536
REMARK  219  A    between atoms: _536  and  _537
REMARK  220  A    between atoms: _539  and  _541
REMARK  221  A    between atoms: _541  and  _542
REMARK  222  A    between atoms: _541  and  _544
REMARK  223  A    between atoms: _544  and  _545
REMARK  224  A    between atoms: _545  and  _546
REMARK  225  A    between atoms: _548  and  _550
REMARK  226  A    between atoms: _550  and  _551
REMARK  227  A    between atoms: _554  and  _556
REMARK  228  A    between atoms: _556  and  _557
REMARK  229  A    between atoms: _556  and  _559
REMARK  230  A    between atoms: _559  and  _560
REMARK  231  A    between atoms: _560  and  _561
REMARK  232  A    between atoms: _564  and  _566
REMARK  233  A    between atoms: _566  and  _567
REMARK  234  A    between atoms: _566  and  _569
REMARK  235  A    between atoms: _569  and  _570
REMARK  236  A    between atoms: _573  and  _575
REMARK  237  A    between atoms: _575  and  _576
REMARK  238  A    between atoms: _575  and  _578
REMARK  239  A    between atoms: _578  and  _579
REMARK  240  A    between atoms: _582  and  _584
REMARK  241  A    between atoms: _584  and  _585
REMARK  242  A    between atoms: _584  and  _587
REMARK  243  A    between atoms: _587  and  _588
REMARK  244  A    between atoms: _590  and  _592
REMARK  245  A    between atoms: _592  and  _593
REMARK  246  A    between atoms: _592  and  _595
REMARK  247  A    between atoms: _595  and  _596
REMARK  248  A    between atoms: _596  and  _597
REMARK  249  A    between atoms: _602  and  _604
REMARK  250  A    between atoms: _604  and  _605
REMARK  251  A    between atoms: _604  and  _607
REMARK  252  A    between atoms: _610  and  _612
REMARK  253  A    between atoms: _612  and  _613
REMARK  254  A    between atoms: _612  and  _615
REMARK  255  A    between atoms: _615  and  _616
REMARK                            x       y       z     vdW  Elec       q    Type
REMARK                         _______ _______ _______ _____ _____    ______ ____
ROOT
ATOM      1  C   ILE A   1      19.322  -2.587   8.090  0.00  0.00    +0.238 C 
ATOM      2  N   ALA A   2      19.547  -1.946   9.235  0.00  0.00    -0.298 N 
ATOM      3  H   ALA A   2      18.740  -1.621   9.805  0.00  0.00    +0.150 HD
ATOM      4  O   ILE A   1      20.235  -3.002   7.363  0.00  0.00    -0.274 OA
ENDROOT
BRANCH   2   5
ATOM      5  CA  ALA A   2      20.903  -1.691   9.705  0.00  0.00    +0.137 C 
ATOM      6  CB  ALA A   2      20.866  -0.813  10.954  0.00  0.00    +0.030 C 
BRANCH   5   7
ATOM      7  C   ALA A   2      21.599  -3.024   9.996  0.00  0.00    +0.227 C 
ATOM      8  O   ALA A   2      22.788  -3.194   9.716  0.00  0.00    -0.286 OA
ENDBRANCH   5   7
ENDBRANCH   2   5
BRANCH   1   9
ATOM      9  CA  ILE A   1      17.852  -2.804   7.709  0.00  0.00    +0.145 C 
BRANCH   9  10
ATOM     10  N   ILE A   1      17.098  -3.232   8.884  0.00  0.00    -0.238 NA
ATOM     11  H   ILE A   1      16.389  -2.590   9.292  0.00  0.00    +0.142 HD
ENDBRANCH   9  10
BRANCH   9  12
ATOM     12  CB  ILE A   1      17.268  -1.496   7.132  0.00  0.00    +0.025 C 
ATOM     13  CG2 ILE A   1      18.041  -1.079   5.883  0.00  0.00    +0.002 C 
BRANCH  12  14
ATOM     14  CG1 ILE A   1      15.784  -1.700   6.793  0.00  0.00    +0.002 C 
ATOM     15  CD1 ILE A   1      15.092  -0.459   6.277  0.00  0.00    +0.000 C 
ENDBRANCH  12  14
ENDBRANCH   9  12
ENDBRANCH   1   9
TORSDOF 6
REMARK  Name = ../refined-set-2016/3b67/3b67_pocket.pdb
REMARK  255 active torsions:
REMARK  status: ('A' for Active; 'I' for Inactive)
REMARK    1  A    between atoms: _1  and  _3
REMARK    2  A    between atoms: _3  and  _4
REMARK    3  A    between atoms: _3  and  _6
REMARK    4  A    between atoms: _9  and  _11
REMARK    5  A    between atoms: _11  and  _12
REMARK    6  A    between atoms: _15  and  _17
REMARK    7  A    between atoms: _17  and  _18
REMARK    8  A    between atoms: _17  and  _20
REMARK    9  A    between atoms: _20  and  _21
REMARK   10  A    between atoms: _24  and  _26
REMARK   11  A    between atoms: _26  and  _27
REMARK   12  A    between atoms: _26  and  _29
REMARK   13  A    between atoms: _29  and  _30
REMARK   14  A    between atoms: _33  and  _35
REMARK   15  A    between atoms: _35  and  _36
REMARK   16  A    between atoms: _35  and  _38
REMARK   17  A    between atoms: _38  and  _39
REMARK   18  A    between atoms: _41  and  _43
REMARK   19  A    between atoms: _43  and  _44
REMARK   20  A    between atoms: _43  and  _46
REMARK   21  A    between atoms: _46  and  _47
REMARK   22  A    between atoms: _49  and  _51
REMARK   23  A    between atoms: _51  and  _52
REMARK   24  A    between atoms: _51  and  _54
REMARK   25  A    between atoms: _54  and  _55
REMARK   26  A    between atoms: _58  and  _60
REMARK   27  A    between atoms: _60  and  _61
REMARK   28  A    between atoms: _60  and  _63
REMARK   29  A    between atoms: _63  and  _64
REMARK   30  A    between atoms: _69  and  _71
REMARK   31  A    between atoms: _71  and  _72
REMARK   32  A    between atoms: _71  and  _74
REMARK   33  A    between atoms: _74  and  _75
REMARK   34  A    between atoms: _75  and  _76
REMARK   35  A    between atoms: _79  and  _81
REMARK   36  A    between atoms: _81  and  _82
REMARK   37  A    between atoms: _81  and  _84
REMARK   38  A    between atoms: _84  and  _85
REMARK   39  A    between atoms: _88  and  _90
REMARK   40  A    between atoms: _90  and  _91
REMARK   41  A    between atoms: _93  and  _95
REMARK   42  A    between atoms: _95  and  _96
REMARK   43  A    between atoms: _95  and  _98
REMARK   44  A    between atoms: _98  and  _99
REMARK   45  A    between atoms: _99  and  _100
REMARK   46  A    between atoms: _103  and  _105
REMARK   47  A    between atoms: _105  and  _106
REMARK   48  A    between atoms: _105  and  _108
REMARK   49  A    between atoms: _108  and  _109
REMARK   50  A    between atoms: _109  and  _110
REMARK   51  A    between atoms: _110  and  _111
REMARK   52  A    between atoms: _120  and  _122
REMARK   53  A    between atoms: _122  and  _123
REMARK   54  A    between atoms: _122  and  _125
REMARK   55  A    between atoms: _125  and  _126
REMARK   56  A    between atoms: _126  and  _127
REMARK   57  A    between atoms: _132  and  _134
REMARK   58  A    between atoms: _134  and  _135
REMARK   59  A    between atoms: _134  and  _137
REMARK   60  A    between atoms: _137  and  _138
REMARK   61  A    between atoms: _141  and  _143
REMARK   62  A    between atoms: _143  and  _144
REMARK   63  A    between atoms: _143  and  _146
REMARK   64  A    between atoms: _149  and  _151
REMARK   65  A    between atoms: _151  and  _152
REMARK   66  A    between atoms: _151  and  _154
REMARK   67  A    between atoms: _154  and  _155
REMARK   68  A    between atoms: _158  and  _160
REMARK   69  A    between atoms: _160  and  _161
REMARK   70  A    between atoms: _160  and  _163
REMARK   71  A    between atoms: _163  and  _164
REMARK   72  A    between atoms: _164  and  _165
REMARK   73  A    between atoms: _170  and  _172
REMARK   74  A    between atoms: _172  and  _173
REMARK   75  A    between atoms: _172  and  _175
REMARK   76  A    between atoms: _175  and  _176
REMARK   77  A    between atoms: _181  and  _182
REMARK   78  A    between atoms: _184  and  _186
REMARK   79  A    between atoms: _186  and  _187
REMARK   80  A    between atoms: _186  and  _189
REMARK   81  A    between atoms: _189  and  _190
REMARK   82  A    between atoms: _192  and  _194
REMARK   83  A    between atoms: _194  and  _195
REMARK   84  A    between atoms: _194  and  _197
REMARK   85  A    between atoms: _197  and  _198
REMARK   86  A    between atoms: _208  and  _210
REMARK   87  A    between atoms: _210  and  _211
REMARK   88  A    between atoms: _210  and  _213
REMARK   89  A    between atoms: _213  and  _214
REMARK   90  A    between atoms: _214  and  _215
REMARK   91  A    between atoms: _217  and  _219
REMARK   92  A    between atoms: _219  and  _220
REMARK   93  A    between atoms: _222  and  _224
REMARK   94  A    between atoms: _224  and  _225
REMARK   95  A    between atoms: _224  and  _227
REMARK   96  A    between atoms: _227  and  _228
REMARK   97  A    between atoms: _231  and  _233
REMARK   98  A    between atoms: _233  and  _234
REMARK   99  A    between atoms: _233  and  _236
REMARK  100  A    between atoms: _236  and  _237
REMARK  101  A    between atoms: _237  and  _238
REMARK  102  A    between atoms: _240  and  _242
REMARK  103  A    between atoms: _242  and  _243
REMARK  104  A    between atoms: _242  and  _245
REMARK  105  A    between atoms: _248  and  _250
REMARK  106  A    between atoms: _250  and  _251
REMARK  107  A    between atoms: _250  and  _253
REMARK  108  A    between atoms: _253  and  _254
REMARK  109  A    between atoms: _260  and  _262
REMARK  110  A    between atoms: _262  and  _263
REMARK  111  A    between atoms: _266  and  _268
REMARK  112  A    between atoms: _268  and  _269
REMARK  113  A    between atoms: _268  and  _271
REMARK  114  A    between atoms: _271  and  _272
REMARK  115  A    between atoms: _272  and  _273
REMARK  116  A    between atoms: _275  and  _277
REMARK  117  A    between atoms: _277  and  _278
REMARK  118  A    between atoms: _280  and  _282
REMARK  119  A    between atoms: _282  and  _283
REMARK  120  A    between atoms: _282  and  _285
REMARK  121  A    between atoms: _285  and  _286
REMARK  122  A    between atoms: _296  and  _298
REMARK  123  A    between atoms: _298  and  _299
REMARK  124  A    between atoms: _298  and  _301
REMARK  125  A    between atoms: _301  and  _302
REMARK  126  A    between atoms: _302  and  _303
REMARK  127  A    between atoms: _303  and  _304
REMARK  128  A    between atoms: _313  and  _315
REMARK  129  A    between atoms: _315  and  _316
REMARK  130  A    between atoms: _315  and  _318
REMARK  131  A    between atoms: _318  and  _319
REMARK  132  A    between atoms: _321  and  _323
REMARK  133  A    between atoms: _323  and  _324
REMARK  134  A    between atoms: _323  and  _326
REMARK  135  A    between atoms: _326  and  _327
REMARK  136  A    between atoms: _330  and  _332
REMARK  137  A    between atoms: _332  and  _333
REMARK  138  A    between atoms: _332  and  _335
REMARK  139  A    between atoms: _335  and  _336
REMARK  140  A    between atoms: _341  and  _342
REMARK  141  A    between atoms: _344  and  _346
REMARK  142  A    between atoms: _346  and  _347
REMARK  143  A    between atoms: _346  and  _349
REMARK  144  A    between atoms: _349  and  _350
REMARK  145  A    between atoms: _356  and  _358
REMARK  146  A    between atoms: _358  and  _359
REMARK  147  A    between atoms: _362  and  _364
REMARK  148  A    between atoms: _364  and  _365
REMARK  149  A    between atoms: _364  and  _367
REMARK  150  A    between atoms: _367  and  _368
REMARK  151  A    between atoms: _371  and  _373
REMARK  152  A    between atoms: _373  and  _374
REMARK  153  A    between atoms: _373  and  _376
REMARK  154  A    between atoms: _376  and  _377
REMARK  155  A    between atoms: _377  and  _378
REMARK  156  A    between atoms: _380  and  _382
REMARK  157  A    between atoms: _382  and  _383
REMARK  158  A    between atoms: _382  and  _385
REMARK  159  A    between atoms: _385  and  _386
REMARK  160  A    between atoms: _386  and  _387
REMARK  161  A    between atoms: _392  and  _394
REMARK  162  A    between atoms: _394  and  _395
REMARK  163  A    between atoms: _394  and  _397
REMARK  164  A    between atoms: _399  and  _401
REMARK  165  A    between atoms: _401  and  _402
REMARK  166  A    between atoms: _401  and  _404
REMARK  167  A    between atoms: _404  and  _405
REMARK  168  A    between atoms: _405  and  _406
REMARK  169  A    between atoms: _408  and  _410
REMARK  170  A    between atoms: _410  and  _411
REMARK  171  A    between atoms: _410  and  _413
REMARK  172  A    between atoms: _413  and  _414
REMARK  173  A    between atoms: _417  and  _419
REMARK  174  A    between atoms: _419  and  _420
REMARK  175  A    between atoms: _423  and  _425
REMARK  176  A    between atoms: _425  and  _426
REMARK  177  A    between atoms: _425  and  _428
REMARK  178  A    between atoms: _428  and  _429
REMARK  179  A    between atoms: _432  and  _434
REMARK  180  A    between atoms: _434  and  _435
REMARK  181  A    between atoms: _434  and  _437
REMARK  182  A    between atoms: _437  and  _438
REMARK  183  A    between atoms: _443  and  _445
REMARK  184  A    between atoms: _445  and  _446
REMARK  185  A    between atoms: _445  and  _448
REMARK  186  A    between atoms: _448  and  _449
REMARK  187  A    between atoms: _455  and  _457
REMARK  188  A    between atoms: _457  and  _458
REMARK  189  A    between atoms: _457  and  _460
REMARK  190  A    between atoms: _460  and  _461
REMARK  191  A    between atoms: _464  and  _466
REMARK  192  A    between atoms: _466  and  _467
REMARK  193  A    between atoms: _466  and  _469
REMARK  194  A    between atoms: _469  and  _470
REMARK  195  A    between atoms: _476  and  _478
REMARK  196  A    between atoms: _478  and  _479
REMARK  197  A    between atoms: _478  and  _481
REMARK  198  A    between atoms: _481  and  _482
REMARK  199  A    between atoms: _485  and  _487
REMARK  200  A    between atoms: _487  and  _488
REMARK  201  A    between atoms: _487  and  _490
REMARK  202  A    between atoms: _490  and  _491
REMARK  203  A    between atoms: _494  and  _496
REMARK  204  A    between atoms: _496  and  _497
REMARK  205  A    between atoms: _496  and  _499
REMARK  206  A    between atoms: _502  and  _504
REMARK  207  A    between atoms: _504  and  _505
REMARK  208  A    between atoms: _504  and  _507
REMARK  209  A    between atoms: _507  and  _508
REMARK  210  A    between atoms: _511  and  _513
REMARK  211  A    between atoms: _513  and  _514
REMARK  212  A    between atoms: _513  and  _516
REMARK  213  A    between atoms: _516  and  _517
REMARK  214  A    between atoms: _524  and  _525
REMARK  215  A    between atoms: _530  and  _532
REMARK  216  A    between atoms: _532  and  _533
REMARK  217  A    between atoms: _532  and  _535
REMARK  218  A    between atoms: _535  and  _536
REMARK  219  A    between atoms: _536  and  _537
REMARK  220  A    between atoms: _539  and  _541
REMARK  221  A    between atoms: _541  and  _542
REMARK  222  A    between atoms: _541  and  _544
REMARK  223  A    between atoms: _544  and  _545
REMARK  224  A    between atoms: _545  and  _546
REMARK  225  A    between atoms: _548  and  _550
REMARK  226  A    between atoms: _550  and  _551
REMARK  227  A    between atoms: _554  and  _556
REMARK  228  A    between atoms: _556  and  _557
REMARK  229  A    between atoms: _556  and  _559
REMARK  230  A    between atoms: _559  and  _560
REMARK  231  A    between atoms: _560  and  _561
REMARK  232  A    between atoms: _564  and  _566
REMARK  233  A    between atoms: _566  and  _567
REMARK  234  A    between atoms: _566  and  _569
REMARK  235  A    between atoms: _569  and  _570
REMARK  236  A    between atoms: _573  and  _575
REMARK  237  A    between atoms: _575  and  _576
REMARK  238  A    between atoms: _575  and  _578
REMARK  239  A    between atoms: _578  and  _579
REMARK  240  A    between atoms: _582  and  _584
REMARK  241  A    between atoms: _584  and  _585
REMARK  242  A    between atoms: _584  and  _587
REMARK  243  A    between atoms: _587  and  _588
REMARK  244  A    between atoms: _590  and  _592
REMARK  245  A    between atoms: _592  and  _593
REMARK  246  A    between atoms: _592  and  _595
REMARK  247  A    between atoms: _595  and  _596
REMARK  248  A    between atoms: _596  and  _597
REMARK  249  A    between atoms: _602  and  _604
REMARK  250  A    between atoms: _604  and  _605
REMARK  251  A    between atoms: _604  and  _607
REMARK  252  A    between atoms: _610  and  _612
REMARK  253  A    between atoms: _612  and  _613
REMARK  254  A    between atoms: _612  and  _615
REMARK  255  A    between atoms: _615  and  _616
REMARK                            x       y       z     vdW  Elec       q    Type
REMARK                         _______ _______ _______ _____ _____    ______ ____
ROOT
ATOM      1  C   LEU A   1      25.277  -4.177   7.132  0.00  0.00    +0.238 C 
ATOM      2  N   HIS A   2      25.083  -4.305   8.444  0.00  0.00    -0.298 N 
ATOM      3  H   HIS A   2      24.132  -4.126   8.824  0.00  0.00    +0.150 HD
ATOM      4  O   LEU A   1      26.365  -4.365   6.585  0.00  0.00    -0.274 OA
ENDROOT
BRANCH   1   5
ATOM      5  CA  LEU A   1      24.049  -3.788   6.306  0.00  0.00    +0.145 C 
BRANCH   5   6
ATOM      6  N   LEU A   1      22.895  -4.498   6.823  0.00  0.00    -0.238 NA
ATOM      7  H   LEU A   1      22.145  -3.981   7.325  0.00  0.00    +0.142 HD
ENDBRANCH   5   6
BRANCH   5   8
ATOM      8  CB  LEU A   1      23.800  -2.276   6.357  0.00  0.00    +0.026 C 
BRANCH   8   9
ATOM      9  CG  LEU A   1      22.819  -1.754   5.292  0.00  0.00    +0.002 C 
ATOM     10  CD2 LEU A   1      22.308  -0.389   5.693  0.00  0.00    +0.000 C 
ATOM     11  CD1 LEU A   1      23.505  -1.696   3.924  0.00  0.00    +0.000 C 
ENDBRANCH   8   9
ENDBRANCH   5   8
ENDBRANCH   1   5
BRANCH   2  12
ATOM     12  CA  HIS A   2      26.145  -4.685   9.375  0.00  0.00    +0.143 C 
BRANCH  12  13
ATOM     13  C   HIS A   2      26.755  -6.016   8.968  0.00  0.00    +0.227 C 
ATOM     14  O   HIS A   2      27.981  -6.159   8.873  0.00  0.00    -0.286 OA
ENDBRANCH  12  13
BRANCH  12  15
ATOM     15  CB  HIS A   2      25.577  -4.823  10.792  0.00  0.00    +0.075 C 
BRANCH  15  16
ATOM     16  CG  HIS A   2      25.526  -3.538  11.553  0.00  0.00    +0.082 A 
ATOM     17  ND1 HIS A   2      24.517  -3.242  12.444  0.00  0.00    -0.227 NA
ATOM     18  CE1 HIS A   2      24.758  -2.070  13.004  0.00  0.00    +0.199 A 
ATOM     19  NE2 HIS A   2      25.887  -1.596  12.507  0.00  0.00    -0.221 NA
ATOM     20  CD2 HIS A   2      26.386  -2.493  11.595  0.00  0.00    +0.115 A 
ENDBRANCH  15  16
ENDBRANCH  12  15
ENDBRANCH   2  12
TORSDOF 8
REMARK  Name = ../refined-set-2016/3b67/3b67_pocket.pdb
REMARK  255 active torsions:
REMARK  status: ('A' for Active; 'I' for Inactive)
REMARK    1  A    between atoms: _1  and  _3
REMARK    2  A    between atoms: _3  and  _4
REMARK    3  A    between atoms: _3  and  _6
REMARK    4  A    between atoms: _9  and  _11
REMARK    5  A    between atoms: _11  and  _12
REMARK    6  A    between atoms: _15  and  _17
REMARK    7  A    between atoms: _17  and  _18
REMARK    8  A    between atoms: _17  and  _20
REMARK    9  A    between atoms: _20  and  _21
REMARK   10  A    between atoms: _24  and  _26
REMARK   11  A    between atoms: _26  and  _27
REMARK   12  A    between atoms: _26  and  _29
REMARK   13  A    between atoms: _29  and  _30
REMARK   14  A    between atoms: _33  and  _35
REMARK   15  A    between atoms: _35  and  _36
REMARK   16  A    between atoms: _35  and  _38
REMARK   17  A    between atoms: _38  and  _39
REMARK   18  A    between atoms: _41  and  _43
REMARK   19  A    between atoms: _43  and  _44
REMARK   20  A    between atoms: _43  and  _46
REMARK   21  A    between atoms: _46  and  _47
REMARK   22  A    between atoms: _49  and  _51
REMARK   23  A    between atoms: _51  and  _52
REMARK   24  A    between atoms: _51  and  _54
REMARK   25  A    between atoms: _54  and  _55
REMARK   26  A    between atoms: _58  and  _60
REMARK   27  A    between atoms: _60  and  _61
REMARK   28  A    between atoms: _60  and  _63
REMARK   29  A    between atoms: _63  and  _64
REMARK   30  A    between atoms: _69  and  _71
REMARK   31  A    between atoms: _71  and  _72
REMARK   32  A    between atoms: _71  and  _74
REMARK   33  A    between atoms: _74  and  _75
REMARK   34  A    between atoms: _75  and  _76
REMARK   35  A    between atoms: _79  and  _81
REMARK   36  A    between atoms: _81  and  _82
REMARK   37  A    between atoms: _81  and  _84
REMARK   38  A    between atoms: _84  and  _85
REMARK   39  A    between atoms: _88  and  _90
REMARK   40  A    between atoms: _90  and  _91
REMARK   41  A    between atoms: _93  and  _95
REMARK   42  A    between atoms: _95  and  _96
REMARK   43  A    between atoms: _95  and  _98
REMARK   44  A    between atoms: _98  and  _99
REMARK   45  A    between atoms: _99  and  _100
REMARK   46  A    between atoms: _103  and  _105
REMARK   47  A    between atoms: _105  and  _106
REMARK   48  A    between atoms: _105  and  _108
REMARK   49  A    between atoms: _108  and  _109
REMARK   50  A    between atoms: _109  and  _110
REMARK   51  A    between atoms: _110  and  _111
REMARK   52  A    between atoms: _120  and  _122
REMARK   53  A    between atoms: _122  and  _123
REMARK   54  A    between atoms: _122  and  _125
REMARK   55  A    between atoms: _125  and  _126
REMARK   56  A    between atoms: _126  and  _127
REMARK   57  A    between atoms: _132  and  _134
REMARK   58  A    between atoms: _134  and  _135
REMARK   59  A    between atoms: _134  and  _137
REMARK   60  A    between atoms: _137  and  _138
REMARK   61  A    between atoms: _141  and  _143
REMARK   62  A    between atoms: _143  and  _144
REMARK   63  A    between atoms: _143  and  _146
REMARK   64  A    between atoms: _149  and  _151
REMARK   65  A    between atoms: _151  and  _152
REMARK   66  A    between atoms: _151  and  _154
REMARK   67  A    between atoms: _154  and  _155
REMARK   68  A    between atoms: _158  and  _160
REMARK   69  A    between atoms: _160  and  _161
REMARK   70  A    between atoms: _160  and  _163
REMARK   71  A    between atoms: _163  and  _164
REMARK   72  A    between atoms: _164  and  _165
REMARK   73  A    between atoms: _170  and  _172
REMARK   74  A    between atoms: _172  and  _173
REMARK   75  A    between atoms: _172  and  _175
REMARK   76  A    between atoms: _175  and  _176
REMARK   77  A    between atoms: _181  and  _182
REMARK   78  A    between atoms: _184  and  _186
REMARK   79  A    between atoms: _186  and  _187
REMARK   80  A    between atoms: _186  and  _189
REMARK   81  A    between atoms: _189  and  _190
REMARK   82  A    between atoms: _192  and  _194
REMARK   83  A    between atoms: _194  and  _195
REMARK   84  A    between atoms: _194  and  _197
REMARK   85  A    between atoms: _197  and  _198
REMARK   86  A    between atoms: _208  and  _210
REMARK   87  A    between atoms: _210  and  _211
REMARK   88  A    between atoms: _210  and  _213
REMARK   89  A    between atoms: _213  and  _214
REMARK   90  A    between atoms: _214  and  _215
REMARK   91  A    between atoms: _217  and  _219
REMARK   92  A    between atoms: _219  and  _220
REMARK   93  A    between atoms: _222  and  _224
REMARK   94  A    between atoms: _224  and  _225
REMARK   95  A    between atoms: _224  and  _227
REMARK   96  A    between atoms: _227  and  _228
REMARK   97  A    between atoms: _231  and  _233
REMARK   98  A    between atoms: _233  and  _234
REMARK   99  A    between atoms: _233  and  _236
REMARK  100  A    between atoms: _236  and  _237
REMARK  101  A    between atoms: _237  and  _238
REMARK  102  A    between atoms: _240  and  _242
REMARK  103  A    between atoms: _242  and  _243
REMARK  104  A    between atoms: _242  and  _245
REMARK  105  A    between atoms: _248  and  _250
REMARK  106  A    between atoms: _250  and  _251
REMARK  107  A    between atoms: _250  and  _253
REMARK  108  A    between atoms: _253  and  _254
REMARK  109  A    between atoms: _260  and  _262
REMARK  110  A    between atoms: _262  and  _263
REMARK  111  A    between atoms: _266  and  _268
REMARK  112  A    between atoms: _268  and  _269
REMARK  113  A    between atoms: _268  and  _271
REMARK  114  A    between atoms: _271  and  _272
REMARK  115  A    between atoms: _272  and  _273
REMARK  116  A    between atoms: _275  and  _277
REMARK  117  A    between atoms: _277  and  _278
REMARK  118  A    between atoms: _280  and  _282
REMARK  119  A    between atoms: _282  and  _283
REMARK  120  A    between atoms: _282  and  _285
REMARK  121  A    between atoms: _285  and  _286
REMARK  122  A    between atoms: _296  and  _298
REMARK  123  A    between atoms: _298  and  _299
REMARK  124  A    between atoms: _298  and  _301
REMARK  125  A    between atoms: _301  and  _302
REMARK  126  A    between atoms: _302  and  _303
REMARK  127  A    between atoms: _303  and  _304
REMARK  128  A    between atoms: _313  and  _315
REMARK  129  A    between atoms: _315  and  _316
REMARK  130  A    between atoms: _315  and  _318
REMARK  131  A    between atoms: _318  and  _319
REMARK  132  A    between atoms: _321  and  _323
REMARK  133  A    between atoms: _323  and  _324
REMARK  134  A    between atoms: _323  and  _326
REMARK  135  A    between atoms: _326  and  _327
REMARK  136  A    between atoms: _330  and  _332
REMARK  137  A    between atoms: _332  and  _333
REMARK  138  A    between atoms: _332  and  _335
REMARK  139  A    between atoms: _335  and  _336
REMARK  140  A    between atoms: _341  and  _342
REMARK  141  A    between atoms: _344  and  _346
REMARK  142  A    between atoms: _346  and  _347
REMARK  143  A    between atoms: _346  and  _349
REMARK  144  A    between atoms: _349  and  _350
REMARK  145  A    between atoms: _356  and  _358
REMARK  146  A    between atoms: _358  and  _359
REMARK  147  A    between atoms: _362  and  _364
REMARK  148  A    between atoms: _364  and  _365
REMARK  149  A    between atoms: _364  and  _367
REMARK  150  A    between atoms: _367  and  _368
REMARK  151  A    between atoms: _371  and  _373
REMARK  152  A    between atoms: _373  and  _374
REMARK  153  A    between atoms: _373  and  _376
REMARK  154  A    between atoms: _376  and  _377
REMARK  155  A    between atoms: _377  and  _378
REMARK  156  A    between atoms: _380  and  _382
REMARK  157  A    between atoms: _382  and  _383
REMARK  158  A    between atoms: _382  and  _385
REMARK  159  A    between atoms: _385  and  _386
REMARK  160  A    between atoms: _386  and  _387
REMARK  161  A    between atoms: _392  and  _394
REMARK  162  A    between atoms: _394  and  _395
REMARK  163  A    between atoms: _394  and  _397
REMARK  164  A    between atoms: _399  and  _401
REMARK  165  A    between atoms: _401  and  _402
REMARK  166  A    between atoms: _401  and  _404
REMARK  167  A    between atoms: _404  and  _405
REMARK  168  A    between atoms: _405  and  _406
REMARK  169  A    between atoms: _408  and  _410
REMARK  170  A    between atoms: _410  and  _411
REMARK  171  A    between atoms: _410  and  _413
REMARK  172  A    between atoms: _413  and  _414
REMARK  173  A    between atoms: _417  and  _419
REMARK  174  A    between atoms: _419  and  _420
REMARK  175  A    between atoms: _423  and  _425
REMARK  176  A    between atoms: _425  and  _426
REMARK  177  A    between atoms: _425  and  _428
REMARK  178  A    between atoms: _428  and  _429
REMARK  179  A    between atoms: _432  and  _434
REMARK  180  A    between atoms: _434  and  _435
REMARK  181  A    between atoms: _434  and  _437
REMARK  182  A    between atoms: _437  and  _438
REMARK  183  A    between atoms: _443  and  _445
REMARK  184  A    between atoms: _445  and  _446
REMARK  185  A    between atoms: _445  and  _448
REMARK  186  A    between atoms: _448  and  _449
REMARK  187  A    between atoms: _455  and  _457
REMARK  188  A    between atoms: _457  and  _458
REMARK  189  A    between atoms: _457  and  _460
REMARK  190  A    between atoms: _460  and  _461
REMARK  191  A    between atoms: _464  and  _466
REMARK  192  A    between atoms: _466  and  _467
REMARK  193  A    between atoms: _466  and  _469
REMARK  194  A    between atoms: _469  and  _470
REMARK  195  A    between atoms: _476  and  _478
REMARK  196  A    between atoms: _478  and  _479
REMARK  197  A    between atoms: _478  and  _481
REMARK  198  A    between atoms: _481  and  _482
REMARK  199  A    between atoms: _485  and  _487
REMARK  200  A    between atoms: _487  and  _488
REMARK  201  A    between atoms: _487  and  _490
REMARK  202  A    between atoms: _490  and  _491
REMARK  203  A    between atoms: _494  and  _496
REMARK  204  A    between atoms: _496  and  _497
REMARK  205  A    between atoms: _496  and  _499
REMARK  206  A    between atoms: _502  and  _504
REMARK  207  A    between atoms: _504  and  _505
REMARK  208  A    between atoms: _504  and  _507
REMARK  209  A    between atoms: _507  and  _508
REMARK  210  A    between atoms: _511  and  _513
REMARK  211  A    between atoms: _513  and  _514
REMARK  212  A    between atoms: _513  and  _516
REMARK  213  A    between atoms: _516  and  _517
REMARK  214  A    between atoms: _524  and  _525
REMARK  215  A    between atoms: _530  and  _532
REMARK  216  A    between atoms: _532  and  _533
REMARK  217  A    between atoms: _532  and  _535
REMARK  218  A    between atoms: _535  and  _536
REMARK  219  A    between atoms: _536  and  _537
REMARK  220  A    between atoms: _539  and  _541
REMARK  221  A    between atoms: _541  and  _542
REMARK  222  A    between atoms: _541  and  _544
REMARK  223  A    between atoms: _544  and  _545
REMARK  224  A    between atoms: _545  and  _546
REMARK  225  A    between atoms: _548  and  _550
REMARK  226  A    between atoms: _550  and  _551
REMARK  227  A    between atoms: _554  and  _556
REMARK  228  A    between atoms: _556  and  _557
REMARK  229  A    between atoms: _556  and  _559
REMARK  230  A    between atoms: _559  and  _560
REMARK  231  A    between atoms: _560  and  _561
REMARK  232  A    between atoms: _564  and  _566
REMARK  233  A    between atoms: _566  and  _567
REMARK  234  A    between atoms: _566  and  _569
REMARK  235  A    between atoms: _569  and  _570
REMARK  236  A    between atoms: _573  and  _575
REMARK  237  A    between atoms: _575  and  _576
REMARK  238  A    between atoms: _575  and  _578
REMARK  239  A    between atoms: _578  and  _579
REMARK  240  A    between atoms: _582  and  _584
REMARK  241  A    between atoms: _584  and  _585
REMARK  242  A    between atoms: _584  and  _587
REMARK  243  A    between atoms: _587  and  _588
REMARK  244  A    between atoms: _590  and  _592
REMARK  245  A    between atoms: _592  and  _593
REMARK  246  A    between atoms: _592  and  _595
REMARK  247  A    between atoms: _595  and  _596
REMARK  248  A    between atoms: _596  and  _597
REMARK  249  A    between atoms: _602  and  _604
REMARK  250  A    between atoms: _604  and  _605
REMARK  251  A    between atoms: _604  and  _607
REMARK  252  A    between atoms: _610  and  _612
REMARK  253  A    between atoms: _612  and  _613
REMARK  254  A    between atoms: _612  and  _615
REMARK  255  A    between atoms: _615  and  _616
REMARK                            x       y       z     vdW  Elec       q    Type
REMARK                         _______ _______ _______ _____ _____    ______ ____
ROOT
ATOM      1  CA  THR A   2      29.835  -4.964   6.029  0.00  0.00    +0.176 C 
ENDROOT
BRANCH   1   3
ATOM      2  C   PHE A   1      28.529  -6.722   4.997  0.00  0.00    +0.239 C 
ATOM      3  N   THR A   2      28.580  -5.655   5.780  0.00  0.00    -0.295 N 
ATOM      4  H   THR A   2      27.707  -5.305   6.225  0.00  0.00    +0.150 HD
ATOM      5  O   PHE A   1      29.524  -7.200   4.456  0.00  0.00    -0.274 OA
BRANCH   2   6
ATOM      6  CA  PHE A   1      27.157  -7.344   4.806  0.00  0.00    +0.149 C 
BRANCH   6   7
ATOM      7  N   PHE A   1      26.508  -7.510   6.097  0.00  0.00    -0.238 NA
ATOM      8  H   PHE A   1      25.606  -7.025   6.278  0.00  0.00    +0.142 HD
ENDBRANCH   6   7
BRANCH   6   9
ATOM      9  CB  PHE A   1      26.296  -6.454   3.903  0.00  0.00    +0.053 C 
BRANCH   9  10
ATOM     10  CG  PHE A   1      27.017  -5.944   2.686  0.00  0.00    -0.020 A 
ATOM     11  CD2 PHE A   1      27.711  -4.737   2.730  0.00  0.00    -0.004 A 
ATOM     12  CE2 PHE A   1      28.400  -4.269   1.607  0.00  0.00    -0.000 A 
ATOM     13  CZ  PHE A   1      28.393  -5.018   0.432  0.00  0.00    -0.000 A 
ATOM     14  CE1 PHE A   1      27.697  -6.229   0.379  0.00  0.00    -0.000 A 
ATOM     15  CD1 PHE A   1      27.018  -6.680   1.502  0.00  0.00    -0.004 A 
ENDBRANCH   9  10
ENDBRANCH   6   9
ENDBRANCH   2   6
ENDBRANCH   1   3
BRANCH   1  16
ATOM     16  C   THR A   2      30.858  -5.854   6.731  0.00  0.00    +0.243 C 
ATOM     17  N   PHE A   3      30.393  -6.612   7.717  0.00  0.00    -0.298 N 
ATOM     18  H   PHE A   3      29.384  -6.567   7.965  0.00  0.00    +0.150 HD
ATOM     19  O   THR A   2      32.052  -5.837   6.403  0.00  0.00    -0.273 OA
BRANCH  17  20
ATOM     20  CA  PHE A   3      31.273  -7.505   8.456  0.00  0.00    +0.141 C 
BRANCH  20  21
ATOM     21  C   PHE A   3      31.846  -8.553   7.509  0.00  0.00    +0.227 C 
ATOM     22  O   PHE A   3      33.057  -8.734   7.443  0.00  0.00    -0.286 OA
ENDBRANCH  20  21
BRANCH  20  23
ATOM     23  CB  PHE A   3      30.505  -8.201   9.588  0.00  0.00    +0.054 C 
BRANCH  23  24
ATOM     24  CG  PHE A   3      31.311  -9.242  10.315  0.00  0.00    -0.020 A 
ATOM     25  CD2 PHE A   3      32.188  -8.879  11.334  0.00  0.00    -0.004 A 
ATOM     26  CE2 PHE A   3      32.967  -9.845  11.984  0.00  0.00    -0.000 A 
ATOM     27  CZ  PHE A   3      32.871 -11.190  11.611  0.00  0.00    -0.000 A 
ATOM     28  CE1 PHE A   3      31.999 -11.565  10.596  0.00  0.00    -0.000 A 
ATOM     29  CD1 PHE A   3      31.222 -10.587   9.952  0.00  0.00    -0.004 A 
ENDBRANCH  23  24
ENDBRANCH  20  23
ENDBRANCH  17  20
ENDBRANCH   1  16
BRANCH   1  30
ATOM     30  CB  THR A   2      29.610  -3.719   6.891  0.00  0.00    +0.137 C 
ATOM     31  CG2 THR A   2      30.929  -3.068   7.209  0.00  0.00    +0.034 C 
BRANCH  30  32
ATOM     32  OG1 THR A   2      28.766  -2.794   6.193  0.00  0.00    -0.382 OA
ATOM     33  HG1 THR A   2      27.895  -3.223   6.002  0.00  0.00    +0.210 HD
ENDBRANCH  30  32
ENDBRANCH   1  30
TORSDOF 12
REMARK  Name = ../refined-set-2016/3b67/3b67_pocket.pdb
REMARK  255 active torsions:
REMARK  status: ('A' for Active; 'I' for Inactive)
REMARK    1  A    between atoms: _1  and  _3
REMARK    2  A    between atoms: _3  and  _4
REMARK    3  A    between atoms: _3  and  _6
REMARK    4  A    between atoms: _9  and  _11
REMARK    5  A    between atoms: _11  and  _12
REMARK    6  A    between atoms: _15  and  _17
REMARK    7  A    between atoms: _17  and  _18
REMARK    8  A    between atoms: _17  and  _20
REMARK    9  A    between atoms: _20  and  _21
REMARK   10  A    between atoms: _24  and  _26
REMARK   11  A    between atoms: _26  and  _27
REMARK   12  A    between atoms: _26  and  _29
REMARK   13  A    between atoms: _29  and  _30
REMARK   14  A    between atoms: _33  and  _35
REMARK   15  A    between atoms: _35  and  _36
REMARK   16  A    between atoms: _35  and  _38
REMARK   17  A    between atoms: _38  and  _39
REMARK   18  A    between atoms: _41  and  _43
REMARK   19  A    between atoms: _43  and  _44
REMARK   20  A    between atoms: _43  and  _46
REMARK   21  A    between atoms: _46  and  _47
REMARK   22  A    between atoms: _49  and  _51
REMARK   23  A    between atoms: _51  and  _52
REMARK   24  A    between atoms: _51  and  _54
REMARK   25  A    between atoms: _54  and  _55
REMARK   26  A    between atoms: _58  and  _60
REMARK   27  A    between atoms: _60  and  _61
REMARK   28  A    between atoms: _60  and  _63
REMARK   29  A    between atoms: _63  and  _64
REMARK   30  A    between atoms: _69  and  _71
REMARK   31  A    between atoms: _71  and  _72
REMARK   32  A    between atoms: _71  and  _74
REMARK   33  A    between atoms: _74  and  _75
REMARK   34  A    between atoms: _75  and  _76
REMARK   35  A    between atoms: _79  and  _81
REMARK   36  A    between atoms: _81  and  _82
REMARK   37  A    between atoms: _81  and  _84
REMARK   38  A    between atoms: _84  and  _85
REMARK   39  A    between atoms: _88  and  _90
REMARK   40  A    between atoms: _90  and  _91
REMARK   41  A    between atoms: _93  and  _95
REMARK   42  A    between atoms: _95  and  _96
REMARK   43  A    between atoms: _95  and  _98
REMARK   44  A    between atoms: _98  and  _99
REMARK   45  A    between atoms: _99  and  _100
REMARK   46  A    between atoms: _103  and  _105
REMARK   47  A    between atoms: _105  and  _106
REMARK   48  A    between atoms: _105  and  _108
REMARK   49  A    between atoms: _108  and  _109
REMARK   50  A    between atoms: _109  and  _110
REMARK   51  A    between atoms: _110  and  _111
REMARK   52  A    between atoms: _120  and  _122
REMARK   53  A    between atoms: _122  and  _123
REMARK   54  A    between atoms: _122  and  _125
REMARK   55  A    between atoms: _125  and  _126
REMARK   56  A    between atoms: _126  and  _127
REMARK   57  A    between atoms: _132  and  _134
REMARK   58  A    between atoms: _134  and  _135
REMARK   59  A    between atoms: _134  and  _137
REMARK   60  A    between atoms: _137  and  _138
REMARK   61  A    between atoms: _141  and  _143
REMARK   62  A    between atoms: _143  and  _144
REMARK   63  A    between atoms: _143  and  _146
REMARK   64  A    between atoms: _149  and  _151
REMARK   65  A    between atoms: _151  and  _152
REMARK   66  A    between atoms: _151  and  _154
REMARK   67  A    between atoms: _154  and  _155
REMARK   68  A    between atoms: _158  and  _160
REMARK   69  A    between atoms: _160  and  _161
REMARK   70  A    between atoms: _160  and  _163
REMARK   71  A    between atoms: _163  and  _164
REMARK   72  A    between atoms: _164  and  _165
REMARK   73  A    between atoms: _170  and  _172
REMARK   74  A    between atoms: _172  and  _173
REMARK   75  A    between atoms: _172  and  _175
REMARK   76  A    between atoms: _175  and  _176
REMARK   77  A    between atoms: _181  and  _182
REMARK   78  A    between atoms: _184  and  _186
REMARK   79  A    between atoms: _186  and  _187
REMARK   80  A    between atoms: _186  and  _189
REMARK   81  A    between atoms: _189  and  _190
REMARK   82  A    between atoms: _192  and  _194
REMARK   83  A    between atoms: _194  and  _195
REMARK   84  A    between atoms: _194  and  _197
REMARK   85  A    between atoms: _197  and  _198
REMARK   86  A    between atoms: _208  and  _210
REMARK   87  A    between atoms: _210  and  _211
REMARK   88  A    between atoms: _210  and  _213
REMARK   89  A    between atoms: _213  and  _214
REMARK   90  A    between atoms: _214  and  _215
REMARK   91  A    between atoms: _217  and  _219
REMARK   92  A    between atoms: _219  and  _220
REMARK   93  A    between atoms: _222  and  _224
REMARK   94  A    between atoms: _224  and  _225
REMARK   95  A    between atoms: _224  and  _227
REMARK   96  A    between atoms: _227  and  _228
REMARK   97  A    between atoms: _231  and  _233
REMARK   98  A    between atoms: _233  and  _234
REMARK   99  A    between atoms: _233  and  _236
REMARK  100  A    between atoms: _236  and  _237
REMARK  101  A    between atoms: _237  and  _238
REMARK  102  A    between atoms: _240  and  _242
REMARK  103  A    between atoms: _242  and  _243
REMARK  104  A    between atoms: _242  and  _245
REMARK  105  A    between atoms: _248  and  _250
REMARK  106  A    between atoms: _250  and  _251
REMARK  107  A    between atoms: _250  and  _253
REMARK  108  A    between atoms: _253  and  _254
REMARK  109  A    between atoms: _260  and  _262
REMARK  110  A    between atoms: _262  and  _263
REMARK  111  A    between atoms: _266  and  _268
REMARK  112  A    between atoms: _268  and  _269
REMARK  113  A    between atoms: _268  and  _271
REMARK  114  A    between atoms: _271  and  _272
REMARK  115  A    between atoms: _272  and  _273
REMARK  116  A    between atoms: _275  and  _277
REMARK  117  A    between atoms: _277  and  _278
REMARK  118  A    between atoms: _280  and  _282
REMARK  119  A    between atoms: _282  and  _283
REMARK  120  A    between atoms: _282  and  _285
REMARK  121  A    between atoms: _285  and  _286
REMARK  122  A    between atoms: _296  and  _298
REMARK  123  A    between atoms: _298  and  _299
REMARK  124  A    between atoms: _298  and  _301
REMARK  125  A    between atoms: _301  and  _302
REMARK  126  A    between atoms: _302  and  _303
REMARK  127  A    between atoms: _303  and  _304
REMARK  128  A    between atoms: _313  and  _315
REMARK  129  A    between atoms: _315  and  _316
REMARK  130  A    between atoms: _315  and  _318
REMARK  131  A    between atoms: _318  and  _319
REMARK  132  A    between atoms: _321  and  _323
REMARK  133  A    between atoms: _323  and  _324
REMARK  134  A    between atoms: _323  and  _326
REMARK  135  A    between atoms: _326  and  _327
REMARK  136  A    between atoms: _330  and  _332
REMARK  137  A    between atoms: _332  and  _333
REMARK  138  A    between atoms: _332  and  _335
REMARK  139  A    between atoms: _335  and  _336
REMARK  140  A    between atoms: _341  and  _342
REMARK  141  A    between atoms: _344  and  _346
REMARK  142  A    between atoms: _346  and  _347
REMARK  143  A    between atoms: _346  and  _349
REMARK  144  A    between atoms: _349  and  _350
REMARK  145  A    between atoms: _356  and  _358
REMARK  146  A    between atoms: _358  and  _359
REMARK  147  A    between atoms: _362  and  _364
REMARK  148  A    between atoms: _364  and  _365
REMARK  149  A    between atoms: _364  and  _367
REMARK  150  A    between atoms: _367  and  _368
REMARK  151  A    between atoms: _371  and  _373
REMARK  152  A    between atoms: _373  and  _374
REMARK  153  A    between atoms: _373  and  _376
REMARK  154  A    between atoms: _376  and  _377
REMARK  155  A    between atoms: _377  and  _378
REMARK  156  A    between atoms: _380  and  _382
REMARK  157  A    between atoms: _382  and  _383
REMARK  158  A    between atoms: _382  and  _385
REMARK  159  A    between atoms: _385  and  _386
REMARK  160  A    between atoms: _386  and  _387
REMARK  161  A    between atoms: _392  and  _394
REMARK  162  A    between atoms: _394  and  _395
REMARK  163  A    between atoms: _394  and  _397
REMARK  164  A    between atoms: _399  and  _401
REMARK  165  A    between atoms: _401  and  _402
REMARK  166  A    between atoms: _401  and  _404
REMARK  167  A    between atoms: _404  and  _405
REMARK  168  A    between atoms: _405  and  _406
REMARK  169  A    between atoms: _408  and  _410
REMARK  170  A    between atoms: _410  and  _411
REMARK  171  A    between atoms: _410  and  _413
REMARK  172  A    between atoms: _413  and  _414
REMARK  173  A    between atoms: _417  and  _419
REMARK  174  A    between atoms: _419  and  _420
REMARK  175  A    between atoms: _423  and  _425
REMARK  176  A    between atoms: _425  and  _426
REMARK  177  A    between atoms: _425  and  _428
REMARK  178  A    between atoms: _428  and  _429
REMARK  179  A    between atoms: _432  and  _434
REMARK  180  A    between atoms: _434  and  _435
REMARK  181  A    between atoms: _434  and  _437
REMARK  182  A    between atoms: _437  and  _438
REMARK  183  A    between atoms: _443  and  _445
REMARK  184  A    between atoms: _445  and  _446
REMARK  185  A    between atoms: _445  and  _448
REMARK  186  A    between atoms: _448  and  _449
REMARK  187  A    between atoms: _455  and  _457
REMARK  188  A    between atoms: _457  and  _458
REMARK  189  A    between atoms: _457  and  _460
REMARK  190  A    between atoms: _460  and  _461
REMARK  191  A    between atoms: _464  and  _466
REMARK  192  A    between atoms: _466  and  _467
REMARK  193  A    between atoms: _466  and  _469
REMARK  194  A    between atoms: _469  and  _470
REMARK  195  A    between atoms: _476  and  _478
REMARK  196  A    between atoms: _478  and  _479
REMARK  197  A    between atoms: _478  and  _481
REMARK  198  A    between atoms: _481  and  _482
REMARK  199  A    between atoms: _485  and  _487
REMARK  200  A    between atoms: _487  and  _488
REMARK  201  A    between atoms: _487  and  _490
REMARK  202  A    between atoms: _490  and  _491
REMARK  203  A    between atoms: _494  and  _496
REMARK  204  A    between atoms: _496  and  _497
REMARK  205  A    between atoms: _496  and  _499
REMARK  206  A    between atoms: _502  and  _504
REMARK  207  A    between atoms: _504  and  _505
REMARK  208  A    between atoms: _504  and  _507
REMARK  209  A    between atoms: _507  and  _508
REMARK  210  A    between atoms: _511  and  _513
REMARK  211  A    between atoms: _513  and  _514
REMARK  212  A    between atoms: _513  and  _516
REMARK  213  A    between atoms: _516  and  _517
REMARK  214  A    between atoms: _524  and  _525
REMARK  215  A    between atoms: _530  and  _532
REMARK  216  A    between atoms: _532  and  _533
REMARK  217  A    between atoms: _532  and  _535
REMARK  218  A    between atoms: _535  and  _536
REMARK  219  A    between atoms: _536  and  _537
REMARK  220  A    between atoms: _539  and  _541
REMARK  221  A    between atoms: _541  and  _542
REMARK  222  A    between atoms: _541  and  _544
REMARK  223  A    between atoms: _544  and  _545
REMARK  224  A    between atoms: _545  and  _546
REMARK  225  A    between atoms: _548  and  _550
REMARK  226  A    between atoms: _550  and  _551
REMARK  227  A    between atoms: _554  and  _556
REMARK  228  A    between atoms: _556  and  _557
REMARK  229  A    between atoms: _556  and  _559
REMARK  230  A    between atoms: _559  and  _560
REMARK  231  A    between atoms: _560  and  _561
REMARK  232  A    between atoms: _564  and  _566
REMARK  233  A    between atoms: _566  and  _567
REMARK  234  A    between atoms: _566  and  _569
REMARK  235  A    between atoms: _569  and  _570
REMARK  236  A    between atoms: _573  and  _575
REMARK  237  A    between atoms: _575  and  _576
REMARK  238  A    between atoms: _575  and  _578
REMARK  239  A    between atoms: _578  and  _579
REMARK  240  A    between atoms: _582  and  _584
REMARK  241  A    between atoms: _584  and  _585
REMARK  242  A    between atoms: _584  and  _587
REMARK  243  A    between atoms: _587  and  _588
REMARK  244  A    between atoms: _590  and  _592
REMARK  245  A    between atoms: _592  and  _593
REMARK  246  A    between atoms: _592  and  _595
REMARK  247  A    between atoms: _595  and  _596
REMARK  248  A    between atoms: _596  and  _597
REMARK  249  A    between atoms: _602  and  _604
REMARK  250  A    between atoms: _604  and  _605
REMARK  251  A    between atoms: _604  and  _607
REMARK  252  A    between atoms: _610  and  _612
REMARK  253  A    between atoms: _612  and  _613
REMARK  254  A    between atoms: _612  and  _615
REMARK  255  A    between atoms: _615  and  _616
REMARK                            x       y       z     vdW  Elec       q    Type
REMARK                         _______ _______ _______ _____ _____    ______ ____
ROOT
ATOM      1  C   LEU A   1      34.474  -7.470   4.003  0.00  0.00    +0.238 C 
ATOM      2  N   LEU A   2      34.504  -7.027   5.256  0.00  0.00    -0.298 N 
ATOM      3  H   LEU A   2      33.612  -6.909   5.777  0.00  0.00    +0.150 HD
ATOM      4  O   LEU A   1      35.495  -7.594   3.321  0.00  0.00    -0.274 OA
ENDROOT
BRANCH   1   5
ATOM      5  CA  LEU A   1      33.092  -7.815   3.421  0.00  0.00    +0.145 C 
BRANCH   5   6
ATOM      6  N   LEU A   1      32.206  -8.474   4.378  0.00  0.00    -0.238 NA
ATOM      7  H   LEU A   1      31.334  -7.995   4.680  0.00  0.00    +0.142 HD
ENDBRANCH   5   6
BRANCH   5   8
ATOM      8  CB  LEU A   1      32.414  -6.559   2.865  0.00  0.00    +0.026 C 
BRANCH   8   9
ATOM      9  CG  LEU A   1      33.182  -5.841   1.754  0.00  0.00    +0.002 C 
ATOM     10  CD2 LEU A   1      32.283  -4.777   1.136  0.00  0.00    +0.000 C 
ATOM     11  CD1 LEU A   1      33.646  -6.850   0.704  0.00  0.00    +0.000 C 
ENDBRANCH   8   9
ENDBRANCH   5   8
ENDBRANCH   1   5
BRANCH   2  12
ATOM     12  CA  LEU A   2      35.765  -6.704   5.912  0.00  0.00    +0.137 C 
BRANCH  12  13
ATOM     13  C   LEU A   2      36.617  -7.969   6.024  0.00  0.00    +0.227 C 
ATOM     14  O   LEU A   2      37.820  -7.935   5.792  0.00  0.00    -0.286 OA
ENDBRANCH  12  13
BRANCH  12  15
ATOM     15  CB  LEU A   2      35.514  -6.149   7.318  0.00  0.00    +0.028 C 
BRANCH  15  16
ATOM     16  CG  LEU A   2      36.777  -5.812   8.122  0.00  0.00    +0.002 C 
ATOM     17  CD2 LEU A   2      36.445  -5.606   9.589  0.00  0.00    +0.000 C 
ATOM     18  CD1 LEU A   2      37.398  -4.549   7.546  0.00  0.00    +0.000 C 
ENDBRANCH  15  16
ENDBRANCH  12  15
ENDBRANCH   2  12
TORSDOF 8
REMARK  Name = ../refined-set-2016/3b67/3b67_pocket.pdb
REMARK  255 active torsions:
REMARK  status: ('A' for Active; 'I' for Inactive)
REMARK    1  A    between atoms: _1  and  _3
REMARK    2  A    between atoms: _3  and  _4
REMARK    3  A    between atoms: _3  and  _6
REMARK    4  A    between atoms: _9  and  _11
REMARK    5  A    between atoms: _11  and  _12
REMARK    6  A    between atoms: _15  and  _17
REMARK    7  A    between atoms: _17  and  _18
REMARK    8  A    between atoms: _17  and  _20
REMARK    9  A    between atoms: _20  and  _21
REMARK   10  A    between atoms: _24  and  _26
REMARK   11  A    between atoms: _26  and  _27
REMARK   12  A    between atoms: _26  and  _29
REMARK   13  A    between atoms: _29  and  _30
REMARK   14  A    between atoms: _33  and  _35
REMARK   15  A    between atoms: _35  and  _36
REMARK   16  A    between atoms: _35  and  _38
REMARK   17  A    between atoms: _38  and  _39
REMARK   18  A    between atoms: _41  and  _43
REMARK   19  A    between atoms: _43  and  _44
REMARK   20  A    between atoms: _43  and  _46
REMARK   21  A    between atoms: _46  and  _47
REMARK   22  A    between atoms: _49  and  _51
REMARK   23  A    between atoms: _51  and  _52
REMARK   24  A    between atoms: _51  and  _54
REMARK   25  A    between atoms: _54  and  _55
REMARK   26  A    between atoms: _58  and  _60
REMARK   27  A    between atoms: _60  and  _61
REMARK   28  A    between atoms: _60  and  _63
REMARK   29  A    between atoms: _63  and  _64
REMARK   30  A    between atoms: _69  and  _71
REMARK   31  A    between atoms: _71  and  _72
REMARK   32  A    between atoms: _71  and  _74
REMARK   33  A    between atoms: _74  and  _75
REMARK   34  A    between atoms: _75  and  _76
REMARK   35  A    between atoms: _79  and  _81
REMARK   36  A    between atoms: _81  and  _82
REMARK   37  A    between atoms: _81  and  _84
REMARK   38  A    between atoms: _84  and  _85
REMARK   39  A    between atoms: _88  and  _90
REMARK   40  A    between atoms: _90  and  _91
REMARK   41  A    between atoms: _93  and  _95
REMARK   42  A    between atoms: _95  and  _96
REMARK   43  A    between atoms: _95  and  _98
REMARK   44  A    between atoms: _98  and  _99
REMARK   45  A    between atoms: _99  and  _100
REMARK   46  A    between atoms: _103  and  _105
REMARK   47  A    between atoms: _105  and  _106
REMARK   48  A    between atoms: _105  and  _108
REMARK   49  A    between atoms: _108  and  _109
REMARK   50  A    between atoms: _109  and  _110
REMARK   51  A    between atoms: _110  and  _111
REMARK   52  A    between atoms: _120  and  _122
REMARK   53  A    between atoms: _122  and  _123
REMARK   54  A    between atoms: _122  and  _125
REMARK   55  A    between atoms: _125  and  _126
REMARK   56  A    between atoms: _126  and  _127
REMARK   57  A    between atoms: _132  and  _134
REMARK   58  A    between atoms: _134  and  _135
REMARK   59  A    between atoms: _134  and  _137
REMARK   60  A    between atoms: _137  and  _138
REMARK   61  A    between atoms: _141  and  _143
REMARK   62  A    between atoms: _143  and  _144
REMARK   63  A    between atoms: _143  and  _146
REMARK   64  A    between atoms: _149  and  _151
REMARK   65  A    between atoms: _151  and  _152
REMARK   66  A    between atoms: _151  and  _154
REMARK   67  A    between atoms: _154  and  _155
REMARK   68  A    between atoms: _158  and  _160
REMARK   69  A    between atoms: _160  and  _161
REMARK   70  A    between atoms: _160  and  _163
REMARK   71  A    between atoms: _163  and  _164
REMARK   72  A    between atoms: _164  and  _165
REMARK   73  A    between atoms: _170  and  _172
REMARK   74  A    between atoms: _172  and  _173
REMARK   75  A    between atoms: _172  and  _175
REMARK   76  A    between atoms: _175  and  _176
REMARK   77  A    between atoms: _181  and  _182
REMARK   78  A    between atoms: _184  and  _186
REMARK   79  A    between atoms: _186  and  _187
REMARK   80  A    between atoms: _186  and  _189
REMARK   81  A    between atoms: _189  and  _190
REMARK   82  A    between atoms: _192  and  _194
REMARK   83  A    between atoms: _194  and  _195
REMARK   84  A    between atoms: _194  and  _197
REMARK   85  A    between atoms: _197  and  _198
REMARK   86  A    between atoms: _208  and  _210
REMARK   87  A    between atoms: _210  and  _211
REMARK   88  A    between atoms: _210  and  _213
REMARK   89  A    between atoms: _213  and  _214
REMARK   90  A    between atoms: _214  and  _215
REMARK   91  A    between atoms: _217  and  _219
REMARK   92  A    between atoms: _219  and  _220
REMARK   93  A    between atoms: _222  and  _224
REMARK   94  A    between atoms: _224  and  _225
REMARK   95  A    between atoms: _224  and  _227
REMARK   96  A    between atoms: _227  and  _228
REMARK   97  A    between atoms: _231  and  _233
REMARK   98  A    between atoms: _233  and  _234
REMARK   99  A    between atoms: _233  and  _236
REMARK  100  A    between atoms: _236  and  _237
REMARK  101  A    between atoms: _237  and  _238
REMARK  102  A    between atoms: _240  and  _242
REMARK  103  A    between atoms: _242  and  _243
REMARK  104  A    between atoms: _242  and  _245
REMARK  105  A    between atoms: _248  and  _250
REMARK  106  A    between atoms: _250  and  _251
REMARK  107  A    between atoms: _250  and  _253
REMARK  108  A    between atoms: _253  and  _254
REMARK  109  A    between atoms: _260  and  _262
REMARK  110  A    between atoms: _262  and  _263
REMARK  111  A    between atoms: _266  and  _268
REMARK  112  A    between atoms: _268  and  _269
REMARK  113  A    between atoms: _268  and  _271
REMARK  114  A    between atoms: _271  and  _272
REMARK  115  A    between atoms: _272  and  _273
REMARK  116  A    between atoms: _275  and  _277
REMARK  117  A    between atoms: _277  and  _278
REMARK  118  A    between atoms: _280  and  _282
REMARK  119  A    between atoms: _282  and  _283
REMARK  120  A    between atoms: _282  and  _285
REMARK  121  A    between atoms: _285  and  _286
REMARK  122  A    between atoms: _296  and  _298
REMARK  123  A    between atoms: _298  and  _299
REMARK  124  A    between atoms: _298  and  _301
REMARK  125  A    between atoms: _301  and  _302
REMARK  126  A    between atoms: _302  and  _303
REMARK  127  A    between atoms: _303  and  _304
REMARK  128  A    between atoms: _313  and  _315
REMARK  129  A    between atoms: _315  and  _316
REMARK  130  A    between atoms: _315  and  _318
REMARK  131  A    between atoms: _318  and  _319
REMARK  132  A    between atoms: _321  and  _323
REMARK  133  A    between atoms: _323  and  _324
REMARK  134  A    between atoms: _323  and  _326
REMARK  135  A    between atoms: _326  and  _327
REMARK  136  A    between atoms: _330  and  _332
REMARK  137  A    between atoms: _332  and  _333
REMARK  138  A    between atoms: _332  and  _335
REMARK  139  A    between atoms: _335  and  _336
REMARK  140  A    between atoms: _341  and  _342
REMARK  141  A    between atoms: _344  and  _346
REMARK  142  A    between atoms: _346  and  _347
REMARK  143  A    between atoms: _346  and  _349
REMARK  144  A    between atoms: _349  and  _350
REMARK  145  A    between atoms: _356  and  _358
REMARK  146  A    between atoms: _358  and  _359
REMARK  147  A    between atoms: _362  and  _364
REMARK  148  A    between atoms: _364  and  _365
REMARK  149  A    between atoms: _364  and  _367
REMARK  150  A    between atoms: _367  and  _368
REMARK  151  A    between atoms: _371  and  _373
REMARK  152  A    between atoms: _373  and  _374
REMARK  153  A    between atoms: _373  and  _376
REMARK  154  A    between atoms: _376  and  _377
REMARK  155  A    between atoms: _377  and  _378
REMARK  156  A    between atoms: _380  and  _382
REMARK  157  A    between atoms: _382  and  _383
REMARK  158  A    between atoms: _382  and  _385
REMARK  159  A    between atoms: _385  and  _386
REMARK  160  A    between atoms: _386  and  _387
REMARK  161  A    between atoms: _392  and  _394
REMARK  162  A    between atoms: _394  and  _395
REMARK  163  A    between atoms: _394  and  _397
REMARK  164  A    between atoms: _399  and  _401
REMARK  165  A    between atoms: _401  and  _402
REMARK  166  A    between atoms: _401  and  _404
REMARK  167  A    between atoms: _404  and  _405
REMARK  168  A    between atoms: _405  and  _406
REMARK  169  A    between atoms: _408  and  _410
REMARK  170  A    between atoms: _410  and  _411
REMARK  171  A    between atoms: _410  and  _413
REMARK  172  A    between atoms: _413  and  _414
REMARK  173  A    between atoms: _417  and  _419
REMARK  174  A    between atoms: _419  and  _420
REMARK  175  A    between atoms: _423  and  _425
REMARK  176  A    between atoms: _425  and  _426
REMARK  177  A    between atoms: _425  and  _428
REMARK  178  A    between atoms: _428  and  _429
REMARK  179  A    between atoms: _432  and  _434
REMARK  180  A    between atoms: _434  and  _435
REMARK  181  A    between atoms: _434  and  _437
REMARK  182  A    between atoms: _437  and  _438
REMARK  183  A    between atoms: _443  and  _445
REMARK  184  A    between atoms: _445  and  _446
REMARK  185  A    between atoms: _445  and  _448
REMARK  186  A    between atoms: _448  and  _449
REMARK  187  A    between atoms: _455  and  _457
REMARK  188  A    between atoms: _457  and  _458
REMARK  189  A    between atoms: _457  and  _460
REMARK  190  A    between atoms: _460  and  _461
REMARK  191  A    between atoms: _464  and  _466
REMARK  192  A    between atoms: _466  and  _467
REMARK  193  A    between atoms: _466  and  _469
REMARK  194  A    between atoms: _469  and  _470
REMARK  195  A    between atoms: _476  and  _478
REMARK  196  A    between atoms: _478  and  _479
REMARK  197  A    between atoms: _478  and  _481
REMARK  198  A    between atoms: _481  and  _482
REMARK  199  A    between atoms: _485  and  _487
REMARK  200  A    between atoms: _487  and  _488
REMARK  201  A    between atoms: _487  and  _490
REMARK  202  A    between atoms: _490  and  _491
REMARK  203  A    between atoms: _494  and  _496
REMARK  204  A    between atoms: _496  and  _497
REMARK  205  A    between atoms: _496  and  _499
REMARK  206  A    between atoms: _502  and  _504
REMARK  207  A    between atoms: _504  and  _505
REMARK  208  A    between atoms: _504  and  _507
REMARK  209  A    between atoms: _507  and  _508
REMARK  210  A    between atoms: _511  and  _513
REMARK  211  A    between atoms: _513  and  _514
REMARK  212  A    between atoms: _513  and  _516
REMARK  213  A    between atoms: _516  and  _517
REMARK  214  A    between atoms: _524  and  _525
REMARK  215  A    between atoms: _530  and  _532
REMARK  216  A    between atoms: _532  and  _533
REMARK  217  A    between atoms: _532  and  _535
REMARK  218  A    between atoms: _535  and  _536
REMARK  219  A    between atoms: _536  and  _537
REMARK  220  A    between atoms: _539  and  _541
REMARK  221  A    between atoms: _541  and  _542
REMARK  222  A    between atoms: _541  and  _544
REMARK  223  A    between atoms: _544  and  _545
REMARK  224  A    between atoms: _545  and  _546
REMARK  225  A    between atoms: _548  and  _550
REMARK  226  A    between atoms: _550  and  _551
REMARK  227  A    between atoms: _554  and  _556
REMARK  228  A    between atoms: _556  and  _557
REMARK  229  A    between atoms: _556  and  _559
REMARK  230  A    between atoms: _559  and  _560
REMARK  231  A    between atoms: _560  and  _561
REMARK  232  A    between atoms: _564  and  _566
REMARK  233  A    between atoms: _566  and  _567
REMARK  234  A    between atoms: _566  and  _569
REMARK  235  A    between atoms: _569  and  _570
REMARK  236  A    between atoms: _573  and  _575
REMARK  237  A    between atoms: _575  and  _576
REMARK  238  A    between atoms: _575  and  _578
REMARK  239  A    between atoms: _578  and  _579
REMARK  240  A    between atoms: _582  and  _584
REMARK  241  A    between atoms: _584  and  _585
REMARK  242  A    between atoms: _584  and  _587
REMARK  243  A    between atoms: _587  and  _588
REMARK  244  A    between atoms: _590  and  _592
REMARK  245  A    between atoms: _592  and  _593
REMARK  246  A    between atoms: _592  and  _595
REMARK  247  A    between atoms: _595  and  _596
REMARK  248  A    between atoms: _596  and  _597
REMARK  249  A    between atoms: _602  and  _604
REMARK  250  A    between atoms: _604  and  _605
REMARK  251  A    between atoms: _604  and  _607
REMARK  252  A    between atoms: _610  and  _612
REMARK  253  A    between atoms: _612  and  _613
REMARK  254  A    between atoms: _612  and  _615
REMARK  255  A    between atoms: _615  and  _616
REMARK                            x       y       z     vdW  Elec       q    Type
REMARK                         _______ _______ _______ _____ _____    ______ ____
ROOT
ATOM      1  C   ASP A   2      39.014  -0.076   2.187  0.00  0.00    +0.241 C 
ATOM      2  N   PHE A   3      39.427  -0.443   3.401  0.00  0.00    -0.297 N 
ATOM      3  H   PHE A   3      40.295  -1.008   3.491  0.00  0.00    +0.150 HD
ATOM      4  O   ASP A   2      37.982   0.578   1.986  0.00  0.00    -0.273 OA
ENDROOT
BRANCH   1   5
ATOM      5  CA  ASP A   2      39.896  -0.499   1.015  0.00  0.00    +0.160 C 
BRANCH   5   8
ATOM      6  C   VAL A   1      38.980  -2.589   0.130  0.00  0.00    +0.238 C 
ATOM      7  O   VAL A   1      39.341  -3.234   1.112  0.00  0.00    -0.274 OA
ATOM      8  N   ASP A   2      39.190  -1.283   0.002  0.00  0.00    -0.297 N 
ATOM      9  H   ASP A   2      38.839  -0.801  -0.850  0.00  0.00    +0.150 HD
BRANCH   6  10
ATOM     10  CA  VAL A   1      38.245  -3.263  -1.028  0.00  0.00    +0.145 C 
BRANCH  10  11
ATOM     11  CB  VAL A   1      36.891  -3.824  -0.530  0.00  0.00    +0.025 C 
ATOM     12  CG2 VAL A   1      36.128  -2.754   0.236  0.00  0.00    +0.002 C 
ATOM     13  CG1 VAL A   1      36.070  -4.308  -1.715  0.00  0.00    +0.002 C 
ENDBRANCH  10  11
BRANCH  10  14
ATOM     14  N   VAL A   1      39.044  -4.310  -1.654  0.00  0.00    -0.238 NA
ATOM     15  H   VAL A   1      39.217  -5.195  -1.136  0.00  0.00    +0.142 HD
ENDBRANCH  10  14
ENDBRANCH   6  10
ENDBRANCH   5   8
BRANCH   5  16
ATOM     16  CB  ASP A   2      40.484   0.767   0.384  0.00  0.00    +0.143 C 
BRANCH  16  17
ATOM     17  CG  ASP A   2      41.308   0.477  -0.854  0.00  0.00    +0.367 C 
ATOM     18  OD2 ASP A   2      42.521   0.789  -0.846  0.00  0.00    -0.246 OA
ATOM     19  OD1 ASP A   2      40.741  -0.060  -1.832  0.00  0.00    -0.246 OA
ENDBRANCH  16  17
ENDBRANCH   5  16
ENDBRANCH   1   5
BRANCH   2  20
ATOM     20  CA  PHE A   3      38.690  -0.071   4.611  0.00  0.00    +0.153 C 
BRANCH  20  21
ATOM     21  C   PHE A   3      39.475   0.933   5.445  0.00  0.00    +0.244 C 
ATOM     22  O   PHE A   3      40.594   0.660   5.873  0.00  0.00    -0.273 OA
ATOM     23  N   PRO A   4      38.888   2.116   5.678  0.00  0.00    -0.273 N 
ATOM     24  CA  PRO A   4      39.517   3.179   6.471  0.00  0.00    +0.140 C 
ATOM     25  CB  PRO A   4      38.465   4.281   6.447  0.00  0.00    +0.030 C 
ATOM     26  CG  PRO A   4      37.819   4.095   5.119  0.00  0.00    +0.024 C 
ATOM     27  CD  PRO A   4      37.642   2.593   5.066  0.00  0.00    +0.094 C 
BRANCH  24  28
ATOM     28  C   PRO A   4      39.832   2.709   7.886  0.00  0.00    +0.227 C 
ATOM     29  O   PRO A   4      39.134   1.857   8.444  0.00  0.00    -0.286 OA
ENDBRANCH  24  28
ENDBRANCH  20  21
BRANCH  20  30
ATOM     30  CB  PHE A   3      38.364  -1.294   5.476  0.00  0.00    +0.055 C 
BRANCH  30  31
ATOM     31  CG  PHE A   3      37.101  -2.004   5.074  0.00  0.00    -0.020 A 
ATOM     32  CD2 PHE A   3      35.871  -1.594   5.577  0.00  0.00    -0.004 A 
ATOM     33  CE2 PHE A   3      34.691  -2.237   5.200  0.00  0.00    -0.000 A 
ATOM     34  CZ  PHE A   3      34.737  -3.303   4.310  0.00  0.00    -0.000 A 
ATOM     35  CE1 PHE A   3      35.961  -3.722   3.797  0.00  0.00    -0.000 A 
ATOM     36  CD1 PHE A   3      37.138  -3.070   4.181  0.00  0.00    -0.004 A 
ENDBRANCH  30  31
ENDBRANCH  20  30
ENDBRANCH   2  20
TORSDOF 12
REMARK  Name = ../refined-set-2016/3b67/3b67_pocket.pdb
REMARK  255 active torsions:
REMARK  status: ('A' for Active; 'I' for Inactive)
REMARK    1  A    between atoms: _1  and  _3
REMARK    2  A    between atoms: _3  and  _4
REMARK    3  A    between atoms: _3  and  _6
REMARK    4  A    between atoms: _9  and  _11
REMARK    5  A    between atoms: _11  and  _12
REMARK    6  A    between atoms: _15  and  _17
REMARK    7  A    between atoms: _17  and  _18
REMARK    8  A    between atoms: _17  and  _20
REMARK    9  A    between atoms: _20  and  _21
REMARK   10  A    between atoms: _24  and  _26
REMARK   11  A    between atoms: _26  and  _27
REMARK   12  A    between atoms: _26  and  _29
REMARK   13  A    between atoms: _29  and  _30
REMARK   14  A    between atoms: _33  and  _35
REMARK   15  A    between atoms: _35  and  _36
REMARK   16  A    between atoms: _35  and  _38
REMARK   17  A    between atoms: _38  and  _39
REMARK   18  A    between atoms: _41  and  _43
REMARK   19  A    between atoms: _43  and  _44
REMARK   20  A    between atoms: _43  and  _46
REMARK   21  A    between atoms: _46  and  _47
REMARK   22  A    between atoms: _49  and  _51
REMARK   23  A    between atoms: _51  and  _52
REMARK   24  A    between atoms: _51  and  _54
REMARK   25  A    between atoms: _54  and  _55
REMARK   26  A    between atoms: _58  and  _60
REMARK   27  A    between atoms: _60  and  _61
REMARK   28  A    between atoms: _60  and  _63
REMARK   29  A    between atoms: _63  and  _64
REMARK   30  A    between atoms: _69  and  _71
REMARK   31  A    between atoms: _71  and  _72
REMARK   32  A    between atoms: _71  and  _74
REMARK   33  A    between atoms: _74  and  _75
REMARK   34  A    between atoms: _75  and  _76
REMARK   35  A    between atoms: _79  and  _81
REMARK   36  A    between atoms: _81  and  _82
REMARK   37  A    between atoms: _81  and  _84
REMARK   38  A    between atoms: _84  and  _85
REMARK   39  A    between atoms: _88  and  _90
REMARK   40  A    between atoms: _90  and  _91
REMARK   41  A    between atoms: _93  and  _95
REMARK   42  A    between atoms: _95  and  _96
REMARK   43  A    between atoms: _95  and  _98
REMARK   44  A    between atoms: _98  and  _99
REMARK   45  A    between atoms: _99  and  _100
REMARK   46  A    between atoms: _103  and  _105
REMARK   47  A    between atoms: _105  and  _106
REMARK   48  A    between atoms: _105  and  _108
REMARK   49  A    between atoms: _108  and  _109
REMARK   50  A    between atoms: _109  and  _110
REMARK   51  A    between atoms: _110  and  _111
REMARK   52  A    between atoms: _120  and  _122
REMARK   53  A    between atoms: _122  and  _123
REMARK   54  A    between atoms: _122  and  _125
REMARK   55  A    between atoms: _125  and  _126
REMARK   56  A    between atoms: _126  and  _127
REMARK   57  A    between atoms: _132  and  _134
REMARK   58  A    between atoms: _134  and  _135
REMARK   59  A    between atoms: _134  and  _137
REMARK   60  A    between atoms: _137  and  _138
REMARK   61  A    between atoms: _141  and  _143
REMARK   62  A    between atoms: _143  and  _144
REMARK   63  A    between atoms: _143  and  _146
REMARK   64  A    between atoms: _149  and  _151
REMARK   65  A    between atoms: _151  and  _152
REMARK   66  A    between atoms: _151  and  _154
REMARK   67  A    between atoms: _154  and  _155
REMARK   68  A    between atoms: _158  and  _160
REMARK   69  A    between atoms: _160  and  _161
REMARK   70  A    between atoms: _160  and  _163
REMARK   71  A    between atoms: _163  and  _164
REMARK   72  A    between atoms: _164  and  _165
REMARK   73  A    between atoms: _170  and  _172
REMARK   74  A    between atoms: _172  and  _173
REMARK   75  A    between atoms: _172  and  _175
REMARK   76  A    between atoms: _175  and  _176
REMARK   77  A    between atoms: _181  and  _182
REMARK   78  A    between atoms: _184  and  _186
REMARK   79  A    between atoms: _186  and  _187
REMARK   80  A    between atoms: _186  and  _189
REMARK   81  A    between atoms: _189  and  _190
REMARK   82  A    between atoms: _192  and  _194
REMARK   83  A    between atoms: _194  and  _195
REMARK   84  A    between atoms: _194  and  _197
REMARK   85  A    between atoms: _197  and  _198
REMARK   86  A    between atoms: _208  and  _210
REMARK   87  A    between atoms: _210  and  _211
REMARK   88  A    between atoms: _210  and  _213
REMARK   89  A    between atoms: _213  and  _214
REMARK   90  A    between atoms: _214  and  _215
REMARK   91  A    between atoms: _217  and  _219
REMARK   92  A    between atoms: _219  and  _220
REMARK   93  A    between atoms: _222  and  _224
REMARK   94  A    between atoms: _224  and  _225
REMARK   95  A    between atoms: _224  and  _227
REMARK   96  A    between atoms: _227  and  _228
REMARK   97  A    between atoms: _231  and  _233
REMARK   98  A    between atoms: _233  and  _234
REMARK   99  A    between atoms: _233  and  _236
REMARK  100  A    between atoms: _236  and  _237
REMARK  101  A    between atoms: _237  and  _238
REMARK  102  A    between atoms: _240  and  _242
REMARK  103  A    between atoms: _242  and  _243
REMARK  104  A    between atoms: _242  and  _245
REMARK  105  A    between atoms: _248  and  _250
REMARK  106  A    between atoms: _250  and  _251
REMARK  107  A    between atoms: _250  and  _253
REMARK  108  A    between atoms: _253  and  _254
REMARK  109  A    between atoms: _260  and  _262
REMARK  110  A    between atoms: _262  and  _263
REMARK  111  A    between atoms: _266  and  _268
REMARK  112  A    between atoms: _268  and  _269
REMARK  113  A    between atoms: _268  and  _271
REMARK  114  A    between atoms: _271  and  _272
REMARK  115  A    between atoms: _272  and  _273
REMARK  116  A    between atoms: _275  and  _277
REMARK  117  A    between atoms: _277  and  _278
REMARK  118  A    between atoms: _280  and  _282
REMARK  119  A    between atoms: _282  and  _283
REMARK  120  A    between atoms: _282  and  _285
REMARK  121  A    between atoms: _285  and  _286
REMARK  122  A    between atoms: _296  and  _298
REMARK  123  A    between atoms: _298  and  _299
REMARK  124  A    between atoms: _298  and  _301
REMARK  125  A    between atoms: _301  and  _302
REMARK  126  A    between atoms: _302  and  _303
REMARK  127  A    between atoms: _303  and  _304
REMARK  128  A    between atoms: _313  and  _315
REMARK  129  A    between atoms: _315  and  _316
REMARK  130  A    between atoms: _315  and  _318
REMARK  131  A    between atoms: _318  and  _319
REMARK  132  A    between atoms: _321  and  _323
REMARK  133  A    between atoms: _323  and  _324
REMARK  134  A    between atoms: _323  and  _326
REMARK  135  A    between atoms: _326  and  _327
REMARK  136  A    between atoms: _330  and  _332
REMARK  137  A    between atoms: _332  and  _333
REMARK  138  A    between atoms: _332  and  _335
REMARK  139  A    between atoms: _335  and  _336
REMARK  140  A    between atoms: _341  and  _342
REMARK  141  A    between atoms: _344  and  _346
REMARK  142  A    between atoms: _346  and  _347
REMARK  143  A    between atoms: _346  and  _349
REMARK  144  A    between atoms: _349  and  _350
REMARK  145  A    between atoms: _356  and  _358
REMARK  146  A    between atoms: _358  and  _359
REMARK  147  A    between atoms: _362  and  _364
REMARK  148  A    between atoms: _364  and  _365
REMARK  149  A    between atoms: _364  and  _367
REMARK  150  A    between atoms: _367  and  _368
REMARK  151  A    between atoms: _371  and  _373
REMARK  152  A    between atoms: _373  and  _374
REMARK  153  A    between atoms: _373  and  _376
REMARK  154  A    between atoms: _376  and  _377
REMARK  155  A    between atoms: _377  and  _378
REMARK  156  A    between atoms: _380  and  _382
REMARK  157  A    between atoms: _382  and  _383
REMARK  158  A    between atoms: _382  and  _385
REMARK  159  A    between atoms: _385  and  _386
REMARK  160  A    between atoms: _386  and  _387
REMARK  161  A    between atoms: _392  and  _394
REMARK  162  A    between atoms: _394  and  _395
REMARK  163  A    between atoms: _394  and  _397
REMARK  164  A    between atoms: _399  and  _401
REMARK  165  A    between atoms: _401  and  _402
REMARK  166  A    between atoms: _401  and  _404
REMARK  167  A    between atoms: _404  and  _405
REMARK  168  A    between atoms: _405  and  _406
REMARK  169  A    between atoms: _408  and  _410
REMARK  170  A    between atoms: _410  and  _411
REMARK  171  A    between atoms: _410  and  _413
REMARK  172  A    between atoms: _413  and  _414
REMARK  173  A    between atoms: _417  and  _419
REMARK  174  A    between atoms: _419  and  _420
REMARK  175  A    between atoms: _423  and  _425
REMARK  176  A    between atoms: _425  and  _426
REMARK  177  A    between atoms: _425  and  _428
REMARK  178  A    between atoms: _428  and  _429
REMARK  179  A    between atoms: _432  and  _434
REMARK  180  A    between atoms: _434  and  _435
REMARK  181  A    between atoms: _434  and  _437
REMARK  182  A    between atoms: _437  and  _438
REMARK  183  A    between atoms: _443  and  _445
REMARK  184  A    between atoms: _445  and  _446
REMARK  185  A    between atoms: _445  and  _448
REMARK  186  A    between atoms: _448  and  _449
REMARK  187  A    between atoms: _455  and  _457
REMARK  188  A    between atoms: _457  and  _458
REMARK  189  A    between atoms: _457  and  _460
REMARK  190  A    between atoms: _460  and  _461
REMARK  191  A    between atoms: _464  and  _466
REMARK  192  A    between atoms: _466  and  _467
REMARK  193  A    between atoms: _466  and  _469
REMARK  194  A    between atoms: _469  and  _470
REMARK  195  A    between atoms: _476  and  _478
REMARK  196  A    between atoms: _478  and  _479
REMARK  197  A    between atoms: _478  and  _481
REMARK  198  A    between atoms: _481  and  _482
REMARK  199  A    between atoms: _485  and  _487
REMARK  200  A    between atoms: _487  and  _488
REMARK  201  A    between atoms: _487  and  _490
REMARK  202  A    between atoms: _490  and  _491
REMARK  203  A    between atoms: _494  and  _496
REMARK  204  A    between atoms: _496  and  _497
REMARK  205  A    between atoms: _496  and  _499
REMARK  206  A    between atoms: _502  and  _504
REMARK  207  A    between atoms: _504  and  _505
REMARK  208  A    between atoms: _504  and  _507
REMARK  209  A    between atoms: _507  and  _508
REMARK  210  A    between atoms: _511  and  _513
REMARK  211  A    between atoms: _513  and  _514
REMARK  212  A    between atoms: _513  and  _516
REMARK  213  A    between atoms: _516  and  _517
REMARK  214  A    between atoms: _524  and  _525
REMARK  215  A    between atoms: _530  and  _532
REMARK  216  A    between atoms: _532  and  _533
REMARK  217  A    between atoms: _532  and  _535
REMARK  218  A    between atoms: _535  and  _536
REMARK  219  A    between atoms: _536  and  _537
REMARK  220  A    between atoms: _539  and  _541
REMARK  221  A    between atoms: _541  and  _542
REMARK  222  A    between atoms: _541  and  _544
REMARK  223  A    between atoms: _544  and  _545
REMARK  224  A    between atoms: _545  and  _546
REMARK  225  A    between atoms: _548  and  _550
REMARK  226  A    between atoms: _550  and  _551
REMARK  227  A    between atoms: _554  and  _556
REMARK  228  A    between atoms: _556  and  _557
REMARK  229  A    between atoms: _556  and  _559
REMARK  230  A    between atoms: _559  and  _560
REMARK  231  A    between atoms: _560  and  _561
REMARK  232  A    between atoms: _564  and  _566
REMARK  233  A    between atoms: _566  and  _567
REMARK  234  A    between atoms: _566  and  _569
REMARK  235  A    between atoms: _569  and  _570
REMARK  236  A    between atoms: _573  and  _575
REMARK  237  A    between atoms: _575  and  _576
REMARK  238  A    between atoms: _575  and  _578
REMARK  239  A    between atoms: _578  and  _579
REMARK  240  A    between atoms: _582  and  _584
REMARK  241  A    between atoms: _584  and  _585
REMARK  242  A    between atoms: _584  and  _587
REMARK  243  A    between atoms: _587  and  _588
REMARK  244  A    between atoms: _590  and  _592
REMARK  245  A    between atoms: _592  and  _593
REMARK  246  A    between atoms: _592  and  _595
REMARK  247  A    between atoms: _595  and  _596
REMARK  248  A    between atoms: _596  and  _597
REMARK  249  A    between atoms: _602  and  _604
REMARK  250  A    between atoms: _604  and  _605
REMARK  251  A    between atoms: _604  and  _607
REMARK  252  A    between atoms: _610  and  _612
REMARK  253  A    between atoms: _612  and  _613
REMARK  254  A    between atoms: _612  and  _615
REMARK  255  A    between atoms: _615  and  _616
REMARK                            x       y       z     vdW  Elec       q    Type
REMARK                         _______ _______ _______ _____ _____    ______ ____
ROOT
ATOM      1  CA  GLU A   4      38.175  -0.860  14.068  0.00  0.00    +0.149 C 
ENDROOT
BRANCH   1   2
ATOM      2  C   GLU A   4      36.772  -1.076  14.592  0.00  0.00    +0.241 C 
ATOM      3  O   GLU A   4      36.525  -2.010  15.355  0.00  0.00    -0.273 OA
ATOM      4  N   ILE A   5      35.848  -0.219  14.172  0.00  0.00    -0.297 N 
ATOM      5  H   ILE A   5      36.115   0.540  13.513  0.00  0.00    +0.150 HD
BRANCH   4   6
ATOM      6  CA  ILE A   5      34.467  -0.325  14.620  0.00  0.00    +0.149 C 
BRANCH   6   7
ATOM      7  C   ILE A   5      33.820  -1.624  14.162  0.00  0.00    +0.241 C 
ATOM      8  O   ILE A   5      33.105  -2.274  14.928  0.00  0.00    -0.273 OA
ATOM      9  N   ILE A   6      34.082  -2.003  12.914  0.00  0.00    -0.297 N 
ATOM     10  H   ILE A   6      34.704  -1.411  12.327  0.00  0.00    +0.150 HD
BRANCH   9  11
ATOM     11  CA  ILE A   6      33.525  -3.218  12.346  0.00  0.00    +0.149 C 
BRANCH  11  12
ATOM     12  C   ILE A   6      34.051  -4.456  13.056  0.00  0.00    +0.241 C 
ATOM     13  N   SER A   7      35.332  -4.434  13.411  0.00  0.00    -0.296 N 
ATOM     14  H   SER A   7      35.902  -3.585  13.221  0.00  0.00    +0.150 HD
ATOM     15  O   ILE A   6      33.308  -5.419  13.271  0.00  0.00    -0.273 OA
BRANCH  13  16
ATOM     16  CA  SER A   7      35.947  -5.579  14.060  0.00  0.00    +0.166 C 
BRANCH  16  17
ATOM     17  C   SER A   7      35.718  -5.640  15.565  0.00  0.00    +0.229 C 
ATOM     18  O   SER A   7      35.730  -6.723  16.146  0.00  0.00    -0.286 OA
ENDBRANCH  16  17
BRANCH  16  19
ATOM     19  CB  SER A   7      37.449  -5.599  13.776  0.00  0.00    +0.165 C 
BRANCH  19  20
ATOM     20  OG  SER A   7      38.118  -4.615  14.544  0.00  0.00    -0.380 OA
ATOM     21  H   SER A   7      37.761  -3.720  14.315  0.00  0.00    +0.211 HD
ENDBRANCH  19  20
ENDBRANCH  16  19
ENDBRANCH  13  16
ENDBRANCH  11  12
BRANCH  11  22
ATOM     22  CB  ILE A   6      33.881  -3.359  10.848  0.00  0.00    +0.027 C 
ATOM     23  CG2 ILE A   6      33.324  -4.672  10.297  0.00  0.00    +0.002 C 
BRANCH  22  24
ATOM     24  CG1 ILE A   6      33.323  -2.177  10.061  0.00  0.00    +0.002 C 
ATOM     25  CD1 ILE A   6      33.674  -2.208   8.587  0.00  0.00    +0.000 C 
ENDBRANCH  22  24
ENDBRANCH  11  22
ENDBRANCH   9  11
ENDBRANCH   6   7
BRANCH   6  26
ATOM     26  CB  ILE A   5      33.631   0.877  14.118  0.00  0.00    +0.027 C 
ATOM     27  CG2 ILE A   5      32.135   0.565  14.224  0.00  0.00    +0.002 C 
BRANCH  26  28
ATOM     28  CG1 ILE A   5      34.005   2.126  14.932  0.00  0.00    +0.002 C 
ATOM     29  CD1 ILE A   5      33.383   3.421  14.438  0.00  0.00    +0.000 C 
ENDBRANCH  26  28
ENDBRANCH   6  26
ENDBRANCH   4   6
ENDBRANCH   1   2
BRANCH   1  31
ATOM     30  C   ALA A   3      37.739  -1.541  11.788  0.00  0.00    +0.241 C 
ATOM     31  N   GLU A   4      38.143  -0.606  12.640  0.00  0.00    -0.297 N 
ATOM     32  H   GLU A   4      38.441   0.322  12.278  0.00  0.00    +0.150 HD
ATOM     33  O   ALA A   3      37.360  -2.662  12.150  0.00  0.00    -0.273 OA
BRANCH  30  34
ATOM     34  CA  ALA A   3      37.769  -1.156  10.308  0.00  0.00    +0.149 C 
ATOM     35  CB  ALA A   3      39.188  -1.311   9.763  0.00  0.00    +0.031 C 
BRANCH  34  38
ATOM     36  C   MET A   2      36.156   0.660  10.588  0.00  0.00    +0.241 C 
ATOM     37  O   MET A   2      35.407  -0.026  11.283  0.00  0.00    -0.273 OA
ATOM     38  N   ALA A   3      37.303   0.210  10.088  0.00  0.00    -0.297 N 
ATOM     39  H   ALA A   3      37.889   0.854   9.520  0.00  0.00    +0.150 HD
BRANCH  36  40
ATOM     40  CA  MET A   2      35.808   2.108  10.270  0.00  0.00    +0.149 C 
BRANCH  40  43
ATOM     41  C   MET A   1      37.407   2.997  11.872  0.00  0.00    +0.238 C 
ATOM     42  O   MET A   1      37.021   2.228  12.761  0.00  0.00    -0.274 OA
ATOM     43  N   MET A   2      36.891   3.005  10.650  0.00  0.00    -0.297 N 
ATOM     44  H   MET A   2      37.270   3.669   9.945  0.00  0.00    +0.150 HD
BRANCH  41  45
ATOM     45  CA  MET A   1      38.523   4.010  12.129  0.00  0.00    +0.146 C 
BRANCH  45  46
ATOM     46  N   MET A   1      39.571   3.967  11.113  0.00  0.00    -0.238 NA
ATOM     47  H   MET A   1      39.785   4.827  10.568  0.00  0.00    +0.142 HD
ENDBRANCH  45  46
BRANCH  45  48
ATOM     48  CB  MET A   1      37.925   5.420  12.210  0.00  0.00    +0.038 C 
BRANCH  48  49
ATOM     49  CG  MET A   1      36.855   5.588  13.289  0.00  0.00    +0.060 C 
BRANCH  49  50
ATOM     50  SD  MET A   1      37.485   5.413  14.996  0.00  0.00    -0.139 S 
ATOM     51  CE  MET A   1      37.234   3.655  15.311  0.00  0.00    +0.069 C 
ENDBRANCH  49  50
ENDBRANCH  48  49
ENDBRANCH  45  48
ENDBRANCH  41  45
ENDBRANCH  40  43
BRANCH  40  52
ATOM     52  CB  MET A   2      35.513   2.265   8.780  0.00  0.00    +0.041 C 
BRANCH  52  53
ATOM     53  CG  MET A   2      34.336   1.457   8.298  0.00  0.00    +0.060 C 
BRANCH  53  54
ATOM     54  SD  MET A   2      33.909   1.874   6.601  0.00  0.00    -0.139 S 
ATOM     55  CE  MET A   2      33.079   3.458   6.859  0.00  0.00    +0.069 C 
ENDBRANCH  53  54
ENDBRANCH  52  53
ENDBRANCH  40  52
ENDBRANCH  36  40
ENDBRANCH  34  38
ENDBRANCH  30  34
ENDBRANCH   1  31
BRANCH   1  56
ATOM     56  CB  GLU A   4      38.828   0.314  14.791  0.00  0.00    +0.041 C 
BRANCH  56  57
ATOM     57  CG  GLU A   4      39.182   0.050  16.241  0.00  0.00    +0.116 C 
BRANCH  57  58
ATOM     58  CD  GLU A   4      39.856   1.252  16.879  0.00  0.00    +0.365 C 
ATOM     59  OE2 GLU A   4      39.328   1.776  17.884  0.00  0.00    -0.246 OA
ATOM     60  OE1 GLU A   4      40.913   1.679  16.366  0.00  0.00    -0.246 OA
ENDBRANCH  57  58
ENDBRANCH  56  57
ENDBRANCH   1  56
TORSDOF 29
REMARK  Name = ../refined-set-2016/3b67/3b67_pocket.pdb
REMARK  255 active torsions:
REMARK  status: ('A' for Active; 'I' for Inactive)
REMARK    1  A    between atoms: _1  and  _3
REMARK    2  A    between atoms: _3  and  _4
REMARK    3  A    between atoms: _3  and  _6
REMARK    4  A    between atoms: _9  and  _11
REMARK    5  A    between atoms: _11  and  _12
REMARK    6  A    between atoms: _15  and  _17
REMARK    7  A    between atoms: _17  and  _18
REMARK    8  A    between atoms: _17  and  _20
REMARK    9  A    between atoms: _20  and  _21
REMARK   10  A    between atoms: _24  and  _26
REMARK   11  A    between atoms: _26  and  _27
REMARK   12  A    between atoms: _26  and  _29
REMARK   13  A    between atoms: _29  and  _30
REMARK   14  A    between atoms: _33  and  _35
REMARK   15  A    between atoms: _35  and  _36
REMARK   16  A    between atoms: _35  and  _38
REMARK   17  A    between atoms: _38  and  _39
REMARK   18  A    between atoms: _41  and  _43
REMARK   19  A    between atoms: _43  and  _44
REMARK   20  A    between atoms: _43  and  _46
REMARK   21  A    between atoms: _46  and  _47
REMARK   22  A    between atoms: _49  and  _51
REMARK   23  A    between atoms: _51  and  _52
REMARK   24  A    between atoms: _51  and  _54
REMARK   25  A    between atoms: _54  and  _55
REMARK   26  A    between atoms: _58  and  _60
REMARK   27  A    between atoms: _60  and  _61
REMARK   28  A    between atoms: _60  and  _63
REMARK   29  A    between atoms: _63  and  _64
REMARK   30  A    between atoms: _69  and  _71
REMARK   31  A    between atoms: _71  and  _72
REMARK   32  A    between atoms: _71  and  _74
REMARK   33  A    between atoms: _74  and  _75
REMARK   34  A    between atoms: _75  and  _76
REMARK   35  A    between atoms: _79  and  _81
REMARK   36  A    between atoms: _81  and  _82
REMARK   37  A    between atoms: _81  and  _84
REMARK   38  A    between atoms: _84  and  _85
REMARK   39  A    between atoms: _88  and  _90
REMARK   40  A    between atoms: _90  and  _91
REMARK   41  A    between atoms: _93  and  _95
REMARK   42  A    between atoms: _95  and  _96
REMARK   43  A    between atoms: _95  and  _98
REMARK   44  A    between atoms: _98  and  _99
REMARK   45  A    between atoms: _99  and  _100
REMARK   46  A    between atoms: _103  and  _105
REMARK   47  A    between atoms: _105  and  _106
REMARK   48  A    between atoms: _105  and  _108
REMARK   49  A    between atoms: _108  and  _109
REMARK   50  A    between atoms: _109  and  _110
REMARK   51  A    between atoms: _110  and  _111
REMARK   52  A    between atoms: _120  and  _122
REMARK   53  A    between atoms: _122  and  _123
REMARK   54  A    between atoms: _122  and  _125
REMARK   55  A    between atoms: _125  and  _126
REMARK   56  A    between atoms: _126  and  _127
REMARK   57  A    between atoms: _132  and  _134
REMARK   58  A    between atoms: _134  and  _135
REMARK   59  A    between atoms: _134  and  _137
REMARK   60  A    between atoms: _137  and  _138
REMARK   61  A    between atoms: _141  and  _143
REMARK   62  A    between atoms: _143  and  _144
REMARK   63  A    between atoms: _143  and  _146
REMARK   64  A    between atoms: _149  and  _151
REMARK   65  A    between atoms: _151  and  _152
REMARK   66  A    between atoms: _151  and  _154
REMARK   67  A    between atoms: _154  and  _155
REMARK   68  A    between atoms: _158  and  _160
REMARK   69  A    between atoms: _160  and  _161
REMARK   70  A    between atoms: _160  and  _163
REMARK   71  A    between atoms: _163  and  _164
REMARK   72  A    between atoms: _164  and  _165
REMARK   73  A    between atoms: _170  and  _172
REMARK   74  A    between atoms: _172  and  _173
REMARK   75  A    between atoms: _172  and  _175
REMARK   76  A    between atoms: _175  and  _176
REMARK   77  A    between atoms: _181  and  _182
REMARK   78  A    between atoms: _184  and  _186
REMARK   79  A    between atoms: _186  and  _187
REMARK   80  A    between atoms: _186  and  _189
REMARK   81  A    between atoms: _189  and  _190
REMARK   82  A    between atoms: _192  and  _194
REMARK   83  A    between atoms: _194  and  _195
REMARK   84  A    between atoms: _194  and  _197
REMARK   85  A    between atoms: _197  and  _198
REMARK   86  A    between atoms: _208  and  _210
REMARK   87  A    between atoms: _210  and  _211
REMARK   88  A    between atoms: _210  and  _213
REMARK   89  A    between atoms: _213  and  _214
REMARK   90  A    between atoms: _214  and  _215
REMARK   91  A    between atoms: _217  and  _219
REMARK   92  A    between atoms: _219  and  _220
REMARK   93  A    between atoms: _222  and  _224
REMARK   94  A    between atoms: _224  and  _225
REMARK   95  A    between atoms: _224  and  _227
REMARK   96  A    between atoms: _227  and  _228
REMARK   97  A    between atoms: _231  and  _233
REMARK   98  A    between atoms: _233  and  _234
REMARK   99  A    between atoms: _233  and  _236
REMARK  100  A    between atoms: _236  and  _237
REMARK  101  A    between atoms: _237  and  _238
REMARK  102  A    between atoms: _240  and  _242
REMARK  103  A    between atoms: _242  and  _243
REMARK  104  A    between atoms: _242  and  _245
REMARK  105  A    between atoms: _248  and  _250
REMARK  106  A    between atoms: _250  and  _251
REMARK  107  A    between atoms: _250  and  _253
REMARK  108  A    between atoms: _253  and  _254
REMARK  109  A    between atoms: _260  and  _262
REMARK  110  A    between atoms: _262  and  _263
REMARK  111  A    between atoms: _266  and  _268
REMARK  112  A    between atoms: _268  and  _269
REMARK  113  A    between atoms: _268  and  _271
REMARK  114  A    between atoms: _271  and  _272
REMARK  115  A    between atoms: _272  and  _273
REMARK  116  A    between atoms: _275  and  _277
REMARK  117  A    between atoms: _277  and  _278
REMARK  118  A    between atoms: _280  and  _282
REMARK  119  A    between atoms: _282  and  _283
REMARK  120  A    between atoms: _282  and  _285
REMARK  121  A    between atoms: _285  and  _286
REMARK  122  A    between atoms: _296  and  _298
REMARK  123  A    between atoms: _298  and  _299
REMARK  124  A    between atoms: _298  and  _301
REMARK  125  A    between atoms: _301  and  _302
REMARK  126  A    between atoms: _302  and  _303
REMARK  127  A    between atoms: _303  and  _304
REMARK  128  A    between atoms: _313  and  _315
REMARK  129  A    between atoms: _315  and  _316
REMARK  130  A    between atoms: _315  and  _318
REMARK  131  A    between atoms: _318  and  _319
REMARK  132  A    between atoms: _321  and  _323
REMARK  133  A    between atoms: _323  and  _324
REMARK  134  A    between atoms: _323  and  _326
REMARK  135  A    between atoms: _326  and  _327
REMARK  136  A    between atoms: _330  and  _332
REMARK  137  A    between atoms: _332  and  _333
REMARK  138  A    between atoms: _332  and  _335
REMARK  139  A    between atoms: _335  and  _336
REMARK  140  A    between atoms: _341  and  _342
REMARK  141  A    between atoms: _344  and  _346
REMARK  142  A    between atoms: _346  and  _347
REMARK  143  A    between atoms: _346  and  _349
REMARK  144  A    between atoms: _349  and  _350
REMARK  145  A    between atoms: _356  and  _358
REMARK  146  A    between atoms: _358  and  _359
REMARK  147  A    between atoms: _362  and  _364
REMARK  148  A    between atoms: _364  and  _365
REMARK  149  A    between atoms: _364  and  _367
REMARK  150  A    between atoms: _367  and  _368
REMARK  151  A    between atoms: _371  and  _373
REMARK  152  A    between atoms: _373  and  _374
REMARK  153  A    between atoms: _373  and  _376
REMARK  154  A    between atoms: _376  and  _377
REMARK  155  A    between atoms: _377  and  _378
REMARK  156  A    between atoms: _380  and  _382
REMARK  157  A    between atoms: _382  and  _383
REMARK  158  A    between atoms: _382  and  _385
REMARK  159  A    between atoms: _385  and  _386
REMARK  160  A    between atoms: _386  and  _387
REMARK  161  A    between atoms: _392  and  _394
REMARK  162  A    between atoms: _394  and  _395
REMARK  163  A    between atoms: _394  and  _397
REMARK  164  A    between atoms: _399  and  _401
REMARK  165  A    between atoms: _401  and  _402
REMARK  166  A    between atoms: _401  and  _404
REMARK  167  A    between atoms: _404  and  _405
REMARK  168  A    between atoms: _405  and  _406
REMARK  169  A    between atoms: _408  and  _410
REMARK  170  A    between atoms: _410  and  _411
REMARK  171  A    between atoms: _410  and  _413
REMARK  172  A    between atoms: _413  and  _414
REMARK  173  A    between atoms: _417  and  _419
REMARK  174  A    between atoms: _419  and  _420
REMARK  175  A    between atoms: _423  and  _425
REMARK  176  A    between atoms: _425  and  _426
REMARK  177  A    between atoms: _425  and  _428
REMARK  178  A    between atoms: _428  and  _429
REMARK  179  A    between atoms: _432  and  _434
REMARK  180  A    between atoms: _434  and  _435
REMARK  181  A    between atoms: _434  and  _437
REMARK  182  A    between atoms: _437  and  _438
REMARK  183  A    between atoms: _443  and  _445
REMARK  184  A    between atoms: _445  and  _446
REMARK  185  A    between atoms: _445  and  _448
REMARK  186  A    between atoms: _448  and  _449
REMARK  187  A    between atoms: _455  and  _457
REMARK  188  A    between atoms: _457  and  _458
REMARK  189  A    between atoms: _457  and  _460
REMARK  190  A    between atoms: _460  and  _461
REMARK  191  A    between atoms: _464  and  _466
REMARK  192  A    between atoms: _466  and  _467
REMARK  193  A    between atoms: _466  and  _469
REMARK  194  A    between atoms: _469  and  _470
REMARK  195  A    between atoms: _476  and  _478
REMARK  196  A    between atoms: _478  and  _479
REMARK  197  A    between atoms: _478  and  _481
REMARK  198  A    between atoms: _481  and  _482
REMARK  199  A    between atoms: _485  and  _487
REMARK  200  A    between atoms: _487  and  _488
REMARK  201  A    between atoms: _487  and  _490
REMARK  202  A    between atoms: _490  and  _491
REMARK  203  A    between atoms: _494  and  _496
REMARK  204  A    between atoms: _496  and  _497
REMARK  205  A    between atoms: _496  and  _499
REMARK  206  A    between atoms: _502  and  _504
REMARK  207  A    between atoms: _504  and  _505
REMARK  208  A    between atoms: _504  and  _507
REMARK  209  A    between atoms: _507  and  _508
REMARK  210  A    between atoms: _511  and  _513
REMARK  211  A    between atoms: _513  and  _514
REMARK  212  A    between atoms: _513  and  _516
REMARK  213  A    between atoms: _516  and  _517
REMARK  214  A    between atoms: _524  and  _525
REMARK  215  A    between atoms: _530  and  _532
REMARK  216  A    between atoms: _532  and  _533
REMARK  217  A    between atoms: _532  and  _535
REMARK  218  A    between atoms: _535  and  _536
REMARK  219  A    between atoms: _536  and  _537
REMARK  220  A    between atoms: _539  and  _541
REMARK  221  A    between atoms: _541  and  _542
REMARK  222  A    between atoms: _541  and  _544
REMARK  223  A    between atoms: _544  and  _545
REMARK  224  A    between atoms: _545  and  _546
REMARK  225  A    between atoms: _548  and  _550
REMARK  226  A    between atoms: _550  and  _551
REMARK  227  A    between atoms: _554  and  _556
REMARK  228  A    between atoms: _556  and  _557
REMARK  229  A    between atoms: _556  and  _559
REMARK  230  A    between atoms: _559  and  _560
REMARK  231  A    between atoms: _560  and  _561
REMARK  232  A    between atoms: _564  and  _566
REMARK  233  A    between atoms: _566  and  _567
REMARK  234  A    between atoms: _566  and  _569
REMARK  235  A    between atoms: _569  and  _570
REMARK  236  A    between atoms: _573  and  _575
REMARK  237  A    between atoms: _575  and  _576
REMARK  238  A    between atoms: _575  and  _578
REMARK  239  A    between atoms: _578  and  _579
REMARK  240  A    between atoms: _582  and  _584
REMARK  241  A    between atoms: _584  and  _585
REMARK  242  A    between atoms: _584  and  _587
REMARK  243  A    between atoms: _587  and  _588
REMARK  244  A    between atoms: _590  and  _592
REMARK  245  A    between atoms: _592  and  _593
REMARK  246  A    between atoms: _592  and  _595
REMARK  247  A    between atoms: _595  and  _596
REMARK  248  A    between atoms: _596  and  _597
REMARK  249  A    between atoms: _602  and  _604
REMARK  250  A    between atoms: _604  and  _605
REMARK  251  A    between atoms: _604  and  _607
REMARK  252  A    between atoms: _610  and  _612
REMARK  253  A    between atoms: _612  and  _613
REMARK  254  A    between atoms: _612  and  _615
REMARK  255  A    between atoms: _615  and  _616
REMARK                            x       y       z     vdW  Elec       q    Type
REMARK                         _______ _______ _______ _____ _____    ______ ____
ROOT
ATOM      1  CA  GLN A   1      31.776  -3.021  17.760  0.00  0.00    +0.145 C 
ENDROOT
BRANCH   1   2
ATOM      2  C   GLN A   1      30.686  -3.816  17.051  0.00  0.00    +0.238 C 
ATOM      3  O   GLN A   1      29.782  -4.344  17.695  0.00  0.00    -0.274 OA
ATOM      4  N   VAL A   2      30.755  -3.899  15.728  0.00  0.00    -0.298 N 
ATOM      5  H   VAL A   2      31.546  -3.449  15.224  0.00  0.00    +0.150 HD
BRANCH   4   6
ATOM      6  CA  VAL A   2      29.731  -4.616  14.973  0.00  0.00    +0.137 C 
BRANCH   6   7
ATOM      7  CB  VAL A   2      29.979  -4.493  13.453  0.00  0.00    +0.026 C 
ATOM      8  CG2 VAL A   2      29.946  -3.012  13.049  0.00  0.00    +0.002 C 
ATOM      9  CG1 VAL A   2      28.921  -5.276  12.678  0.00  0.00    +0.002 C 
ENDBRANCH   6   7
BRANCH   6  10
ATOM     10  C   VAL A   2      29.568  -6.086  15.356  0.00  0.00    +0.227 C 
ATOM     11  O   VAL A   2      28.462  -6.621  15.300  0.00  0.00    -0.286 OA
ENDBRANCH   6  10
ENDBRANCH   4   6
ENDBRANCH   1   2
BRANCH   1  12
ATOM     12  N   GLN A   1      33.159  -3.321  17.416  0.00  0.00    -0.238 NA
ATOM     13  H   GLN A   1      33.624  -2.781  16.659  0.00  0.00    +0.142 HD
ENDBRANCH   1  12
BRANCH   1  14
ATOM     14  CB  GLN A   1      31.523  -1.527  17.556  0.00  0.00    +0.036 C 
BRANCH  14  15
ATOM     15  CG  GLN A   1      32.391  -0.627  18.423  0.00  0.00    +0.087 C 
BRANCH  15  16
ATOM     16  CD  GLN A   1      32.026  -0.687  19.900  0.00  0.00    +0.219 C 
ATOM     17  OE1 GLN A   1      31.991  -1.762  20.507  0.00  0.00    -0.275 OA
ATOM     18  NE2 GLN A   1      31.754   0.477  20.488  0.00  0.00    -0.329 N 
ATOM     19 HE21 GLN A   1      31.500   0.504  21.496  0.00  0.00    +0.145 HD
ATOM     20 HE22 GLN A   1      31.795   1.359  19.939  0.00  0.00    +0.145 HD
ENDBRANCH  15  16
ENDBRANCH  14  15
ENDBRANCH   1  14
TORSDOF 8
REMARK  Name = ../refined-set-2016/3b67/3b67_pocket.pdb
REMARK  255 active torsions:
REMARK  status: ('A' for Active; 'I' for Inactive)
REMARK    1  A    between atoms: _1  and  _3
REMARK    2  A    between atoms: _3  and  _4
REMARK    3  A    between atoms: _3  and  _6
REMARK    4  A    between atoms: _9  and  _11
REMARK    5  A    between atoms: _11  and  _12
REMARK    6  A    between atoms: _15  and  _17
REMARK    7  A    between atoms: _17  and  _18
REMARK    8  A    between atoms: _17  and  _20
REMARK    9  A    between atoms: _20  and  _21
REMARK   10  A    between atoms: _24  and  _26
REMARK   11  A    between atoms: _26  and  _27
REMARK   12  A    between atoms: _26  and  _29
REMARK   13  A    between atoms: _29  and  _30
REMARK   14  A    between atoms: _33  and  _35
REMARK   15  A    between atoms: _35  and  _36
REMARK   16  A    between atoms: _35  and  _38
REMARK   17  A    between atoms: _38  and  _39
REMARK   18  A    between atoms: _41  and  _43
REMARK   19  A    between atoms: _43  and  _44
REMARK   20  A    between atoms: _43  and  _46
REMARK   21  A    between atoms: _46  and  _47
REMARK   22  A    between atoms: _49  and  _51
REMARK   23  A    between atoms: _51  and  _52
REMARK   24  A    between atoms: _51  and  _54
REMARK   25  A    between atoms: _54  and  _55
REMARK   26  A    between atoms: _58  and  _60
REMARK   27  A    between atoms: _60  and  _61
REMARK   28  A    between atoms: _60  and  _63
REMARK   29  A    between atoms: _63  and  _64
REMARK   30  A    between atoms: _69  and  _71
REMARK   31  A    between atoms: _71  and  _72
REMARK   32  A    between atoms: _71  and  _74
REMARK   33  A    between atoms: _74  and  _75
REMARK   34  A    between atoms: _75  and  _76
REMARK   35  A    between atoms: _79  and  _81
REMARK   36  A    between atoms: _81  and  _82
REMARK   37  A    between atoms: _81  and  _84
REMARK   38  A    between atoms: _84  and  _85
REMARK   39  A    between atoms: _88  and  _90
REMARK   40  A    between atoms: _90  and  _91
REMARK   41  A    between atoms: _93  and  _95
REMARK   42  A    between atoms: _95  and  _96
REMARK   43  A    between atoms: _95  and  _98
REMARK   44  A    between atoms: _98  and  _99
REMARK   45  A    between atoms: _99  and  _100
REMARK   46  A    between atoms: _103  and  _105
REMARK   47  A    between atoms: _105  and  _106
REMARK   48  A    between atoms: _105  and  _108
REMARK   49  A    between atoms: _108  and  _109
REMARK   50  A    between atoms: _109  and  _110
REMARK   51  A    between atoms: _110  and  _111
REMARK   52  A    between atoms: _120  and  _122
REMARK   53  A    between atoms: _122  and  _123
REMARK   54  A    between atoms: _122  and  _125
REMARK   55  A    between atoms: _125  and  _126
REMARK   56  A    between atoms: _126  and  _127
REMARK   57  A    between atoms: _132  and  _134
REMARK   58  A    between atoms: _134  and  _135
REMARK   59  A    between atoms: _134  and  _137
REMARK   60  A    between atoms: _137  and  _138
REMARK   61  A    between atoms: _141  and  _143
REMARK   62  A    between atoms: _143  and  _144
REMARK   63  A    between atoms: _143  and  _146
REMARK   64  A    between atoms: _149  and  _151
REMARK   65  A    between atoms: _151  and  _152
REMARK   66  A    between atoms: _151  and  _154
REMARK   67  A    between atoms: _154  and  _155
REMARK   68  A    between atoms: _158  and  _160
REMARK   69  A    between atoms: _160  and  _161
REMARK   70  A    between atoms: _160  and  _163
REMARK   71  A    between atoms: _163  and  _164
REMARK   72  A    between atoms: _164  and  _165
REMARK   73  A    between atoms: _170  and  _172
REMARK   74  A    between atoms: _172  and  _173
REMARK   75  A    between atoms: _172  and  _175
REMARK   76  A    between atoms: _175  and  _176
REMARK   77  A    between atoms: _181  and  _182
REMARK   78  A    between atoms: _184  and  _186
REMARK   79  A    between atoms: _186  and  _187
REMARK   80  A    between atoms: _186  and  _189
REMARK   81  A    between atoms: _189  and  _190
REMARK   82  A    between atoms: _192  and  _194
REMARK   83  A    between atoms: _194  and  _195
REMARK   84  A    between atoms: _194  and  _197
REMARK   85  A    between atoms: _197  and  _198
REMARK   86  A    between atoms: _208  and  _210
REMARK   87  A    between atoms: _210  and  _211
REMARK   88  A    between atoms: _210  and  _213
REMARK   89  A    between atoms: _213  and  _214
REMARK   90  A    between atoms: _214  and  _215
REMARK   91  A    between atoms: _217  and  _219
REMARK   92  A    between atoms: _219  and  _220
REMARK   93  A    between atoms: _222  and  _224
REMARK   94  A    between atoms: _224  and  _225
REMARK   95  A    between atoms: _224  and  _227
REMARK   96  A    between atoms: _227  and  _228
REMARK   97  A    between atoms: _231  and  _233
REMARK   98  A    between atoms: _233  and  _234
REMARK   99  A    between atoms: _233  and  _236
REMARK  100  A    between atoms: _236  and  _237
REMARK  101  A    between atoms: _237  and  _238
REMARK  102  A    between atoms: _240  and  _242
REMARK  103  A    between atoms: _242  and  _243
REMARK  104  A    between atoms: _242  and  _245
REMARK  105  A    between atoms: _248  and  _250
REMARK  106  A    between atoms: _250  and  _251
REMARK  107  A    between atoms: _250  and  _253
REMARK  108  A    between atoms: _253  and  _254
REMARK  109  A    between atoms: _260  and  _262
REMARK  110  A    between atoms: _262  and  _263
REMARK  111  A    between atoms: _266  and  _268
REMARK  112  A    between atoms: _268  and  _269
REMARK  113  A    between atoms: _268  and  _271
REMARK  114  A    between atoms: _271  and  _272
REMARK  115  A    between atoms: _272  and  _273
REMARK  116  A    between atoms: _275  and  _277
REMARK  117  A    between atoms: _277  and  _278
REMARK  118  A    between atoms: _280  and  _282
REMARK  119  A    between atoms: _282  and  _283
REMARK  120  A    between atoms: _282  and  _285
REMARK  121  A    between atoms: _285  and  _286
REMARK  122  A    between atoms: _296  and  _298
REMARK  123  A    between atoms: _298  and  _299
REMARK  124  A    between atoms: _298  and  _301
REMARK  125  A    between atoms: _301  and  _302
REMARK  126  A    between atoms: _302  and  _303
REMARK  127  A    between atoms: _303  and  _304
REMARK  128  A    between atoms: _313  and  _315
REMARK  129  A    between atoms: _315  and  _316
REMARK  130  A    between atoms: _315  and  _318
REMARK  131  A    between atoms: _318  and  _319
REMARK  132  A    between atoms: _321  and  _323
REMARK  133  A    between atoms: _323  and  _324
REMARK  134  A    between atoms: _323  and  _326
REMARK  135  A    between atoms: _326  and  _327
REMARK  136  A    between atoms: _330  and  _332
REMARK  137  A    between atoms: _332  and  _333
REMARK  138  A    between atoms: _332  and  _335
REMARK  139  A    between atoms: _335  and  _336
REMARK  140  A    between atoms: _341  and  _342
REMARK  141  A    between atoms: _344  and  _346
REMARK  142  A    between atoms: _346  and  _347
REMARK  143  A    between atoms: _346  and  _349
REMARK  144  A    between atoms: _349  and  _350
REMARK  145  A    between atoms: _356  and  _358
REMARK  146  A    between atoms: _358  and  _359
REMARK  147  A    between atoms: _362  and  _364
REMARK  148  A    between atoms: _364  and  _365
REMARK  149  A    between atoms: _364  and  _367
REMARK  150  A    between atoms: _367  and  _368
REMARK  151  A    between atoms: _371  and  _373
REMARK  152  A    between atoms: _373  and  _374
REMARK  153  A    between atoms: _373  and  _376
REMARK  154  A    between atoms: _376  and  _377
REMARK  155  A    between atoms: _377  and  _378
REMARK  156  A    between atoms: _380  and  _382
REMARK  157  A    between atoms: _382  and  _383
REMARK  158  A    between atoms: _382  and  _385
REMARK  159  A    between atoms: _385  and  _386
REMARK  160  A    between atoms: _386  and  _387
REMARK  161  A    between atoms: _392  and  _394
REMARK  162  A    between atoms: _394  and  _395
REMARK  163  A    between atoms: _394  and  _397
REMARK  164  A    between atoms: _399  and  _401
REMARK  165  A    between atoms: _401  and  _402
REMARK  166  A    between atoms: _401  and  _404
REMARK  167  A    between atoms: _404  and  _405
REMARK  168  A    between atoms: _405  and  _406
REMARK  169  A    between atoms: _408  and  _410
REMARK  170  A    between atoms: _410  and  _411
REMARK  171  A    between atoms: _410  and  _413
REMARK  172  A    between atoms: _413  and  _414
REMARK  173  A    between atoms: _417  and  _419
REMARK  174  A    between atoms: _419  and  _420
REMARK  175  A    between atoms: _423  and  _425
REMARK  176  A    between atoms: _425  and  _426
REMARK  177  A    between atoms: _425  and  _428
REMARK  178  A    between atoms: _428  and  _429
REMARK  179  A    between atoms: _432  and  _434
REMARK  180  A    between atoms: _434  and  _435
REMARK  181  A    between atoms: _434  and  _437
REMARK  182  A    between atoms: _437  and  _438
REMARK  183  A    between atoms: _443  and  _445
REMARK  184  A    between atoms: _445  and  _446
REMARK  185  A    between atoms: _445  and  _448
REMARK  186  A    between atoms: _448  and  _449
REMARK  187  A    between atoms: _455  and  _457
REMARK  188  A    between atoms: _457  and  _458
REMARK  189  A    between atoms: _457  and  _460
REMARK  190  A    between atoms: _460  and  _461
REMARK  191  A    between atoms: _464  and  _466
REMARK  192  A    between atoms: _466  and  _467
REMARK  193  A    between atoms: _466  and  _469
REMARK  194  A    between atoms: _469  and  _470
REMARK  195  A    between atoms: _476  and  _478
REMARK  196  A    between atoms: _478  and  _479
REMARK  197  A    between atoms: _478  and  _481
REMARK  198  A    between atoms: _481  and  _482
REMARK  199  A    between atoms: _485  and  _487
REMARK  200  A    between atoms: _487  and  _488
REMARK  201  A    between atoms: _487  and  _490
REMARK  202  A    between atoms: _490  and  _491
REMARK  203  A    between atoms: _494  and  _496
REMARK  204  A    between atoms: _496  and  _497
REMARK  205  A    between atoms: _496  and  _499
REMARK  206  A    between atoms: _502  and  _504
REMARK  207  A    between atoms: _504  and  _505
REMARK  208  A    between atoms: _504  and  _507
REMARK  209  A    between atoms: _507  and  _508
REMARK  210  A    between atoms: _511  and  _513
REMARK  211  A    between atoms: _513  and  _514
REMARK  212  A    between atoms: _513  and  _516
REMARK  213  A    between atoms: _516  and  _517
REMARK  214  A    between atoms: _524  and  _525
REMARK  215  A    between atoms: _530  and  _532
REMARK  216  A    between atoms: _532  and  _533
REMARK  217  A    between atoms: _532  and  _535
REMARK  218  A    between atoms: _535  and  _536
REMARK  219  A    between atoms: _536  and  _537
REMARK  220  A    between atoms: _539  and  _541
REMARK  221  A    between atoms: _541  and  _542
REMARK  222  A    between atoms: _541  and  _544
REMARK  223  A    between atoms: _544  and  _545
REMARK  224  A    between atoms: _545  and  _546
REMARK  225  A    between atoms: _548  and  _550
REMARK  226  A    between atoms: _550  and  _551
REMARK  227  A    between atoms: _554  and  _556
REMARK  228  A    between atoms: _556  and  _557
REMARK  229  A    between atoms: _556  and  _559
REMARK  230  A    between atoms: _559  and  _560
REMARK  231  A    between atoms: _560  and  _561
REMARK  232  A    between atoms: _564  and  _566
REMARK  233  A    between atoms: _566  and  _567
REMARK  234  A    between atoms: _566  and  _569
REMARK  235  A    between atoms: _569  and  _570
REMARK  236  A    between atoms: _573  and  _575
REMARK  237  A    between atoms: _575  and  _576
REMARK  238  A    between atoms: _575  and  _578
REMARK  239  A    between atoms: _578  and  _579
REMARK  240  A    between atoms: _582  and  _584
REMARK  241  A    between atoms: _584  and  _585
REMARK  242  A    between atoms: _584  and  _587
REMARK  243  A    between atoms: _587  and  _588
REMARK  244  A    between atoms: _590  and  _592
REMARK  245  A    between atoms: _592  and  _593
REMARK  246  A    between atoms: _592  and  _595
REMARK  247  A    between atoms: _595  and  _596
REMARK  248  A    between atoms: _596  and  _597
REMARK  249  A    between atoms: _602  and  _604
REMARK  250  A    between atoms: _604  and  _605
REMARK  251  A    between atoms: _604  and  _607
REMARK  252  A    between atoms: _610  and  _612
REMARK  253  A    between atoms: _612  and  _613
REMARK  254  A    between atoms: _612  and  _615
REMARK  255  A    between atoms: _615  and  _616
REMARK                            x       y       z     vdW  Elec       q    Type
REMARK                         _______ _______ _______ _____ _____    ______ ____
ROOT
ATOM      1  CA  ILE A   1      25.646  -6.465  17.558  0.00  0.00    +0.133 C 
ENDROOT
BRANCH   1   2
ATOM      2  N   ILE A   1      27.028  -6.571  18.001  0.00  0.00    -0.239 NA
ATOM      3  H   ILE A   1      27.778  -6.069  17.484  0.00  0.00    +0.142 HD
ENDBRANCH   1   2
BRANCH   1   4
ATOM      4  C   ILE A   1      25.199  -7.741  16.855  0.00  0.00    +0.224 C 
ATOM      5  O   ILE A   1      24.111  -8.249  17.121  0.00  0.00    -0.287 OA
ENDBRANCH   1   4
BRANCH   1   6
ATOM      6  CB  ILE A   1      25.440  -5.270  16.591  0.00  0.00    +0.023 C 
ATOM      7  CG2 ILE A   1      23.991  -5.227  16.109  0.00  0.00    +0.002 C 
BRANCH   6   8
ATOM      8  CG1 ILE A   1      25.797  -3.958  17.297  0.00  0.00    +0.002 C 
ATOM      9  CD1 ILE A   1      25.607  -2.724  16.432  0.00  0.00    +0.000 C 
ENDBRANCH   6   8
ENDBRANCH   1   6
TORSDOF 4
REMARK  Name = ../refined-set-2016/3b67/3b67_pocket.pdb
REMARK  255 active torsions:
REMARK  status: ('A' for Active; 'I' for Inactive)
REMARK    1  A    between atoms: _1  and  _3
REMARK    2  A    between atoms: _3  and  _4
REMARK    3  A    between atoms: _3  and  _6
REMARK    4  A    between atoms: _9  and  _11
REMARK    5  A    between atoms: _11  and  _12
REMARK    6  A    between atoms: _15  and  _17
REMARK    7  A    between atoms: _17  and  _18
REMARK    8  A    between atoms: _17  and  _20
REMARK    9  A    between atoms: _20  and  _21
REMARK   10  A    between atoms: _24  and  _26
REMARK   11  A    between atoms: _26  and  _27
REMARK   12  A    between atoms: _26  and  _29
REMARK   13  A    between atoms: _29  and  _30
REMARK   14  A    between atoms: _33  and  _35
REMARK   15  A    between atoms: _35  and  _36
REMARK   16  A    between atoms: _35  and  _38
REMARK   17  A    between atoms: _38  and  _39
REMARK   18  A    between atoms: _41  and  _43
REMARK   19  A    between atoms: _43  and  _44
REMARK   20  A    between atoms: _43  and  _46
REMARK   21  A    between atoms: _46  and  _47
REMARK   22  A    between atoms: _49  and  _51
REMARK   23  A    between atoms: _51  and  _52
REMARK   24  A    between atoms: _51  and  _54
REMARK   25  A    between atoms: _54  and  _55
REMARK   26  A    between atoms: _58  and  _60
REMARK   27  A    between atoms: _60  and  _61
REMARK   28  A    between atoms: _60  and  _63
REMARK   29  A    between atoms: _63  and  _64
REMARK   30  A    between atoms: _69  and  _71
REMARK   31  A    between atoms: _71  and  _72
REMARK   32  A    between atoms: _71  and  _74
REMARK   33  A    between atoms: _74  and  _75
REMARK   34  A    between atoms: _75  and  _76
REMARK   35  A    between atoms: _79  and  _81
REMARK   36  A    between atoms: _81  and  _82
REMARK   37  A    between atoms: _81  and  _84
REMARK   38  A    between atoms: _84  and  _85
REMARK   39  A    between atoms: _88  and  _90
REMARK   40  A    between atoms: _90  and  _91
REMARK   41  A    between atoms: _93  and  _95
REMARK   42  A    between atoms: _95  and  _96
REMARK   43  A    between atoms: _95  and  _98
REMARK   44  A    between atoms: _98  and  _99
REMARK   45  A    between atoms: _99  and  _100
REMARK   46  A    between atoms: _103  and  _105
REMARK   47  A    between atoms: _105  and  _106
REMARK   48  A    between atoms: _105  and  _108
REMARK   49  A    between atoms: _108  and  _109
REMARK   50  A    between atoms: _109  and  _110
REMARK   51  A    between atoms: _110  and  _111
REMARK   52  A    between atoms: _120  and  _122
REMARK   53  A    between atoms: _122  and  _123
REMARK   54  A    between atoms: _122  and  _125
REMARK   55  A    between atoms: _125  and  _126
REMARK   56  A    between atoms: _126  and  _127
REMARK   57  A    between atoms: _132  and  _134
REMARK   58  A    between atoms: _134  and  _135
REMARK   59  A    between atoms: _134  and  _137
REMARK   60  A    between atoms: _137  and  _138
REMARK   61  A    between atoms: _141  and  _143
REMARK   62  A    between atoms: _143  and  _144
REMARK   63  A    between atoms: _143  and  _146
REMARK   64  A    between atoms: _149  and  _151
REMARK   65  A    between atoms: _151  and  _152
REMARK   66  A    between atoms: _151  and  _154
REMARK   67  A    between atoms: _154  and  _155
REMARK   68  A    between atoms: _158  and  _160
REMARK   69  A    between atoms: _160  and  _161
REMARK   70  A    between atoms: _160  and  _163
REMARK   71  A    between atoms: _163  and  _164
REMARK   72  A    between atoms: _164  and  _165
REMARK   73  A    between atoms: _170  and  _172
REMARK   74  A    between atoms: _172  and  _173
REMARK   75  A    between atoms: _172  and  _175
REMARK   76  A    between atoms: _175  and  _176
REMARK   77  A    between atoms: _181  and  _182
REMARK   78  A    between atoms: _184  and  _186
REMARK   79  A    between atoms: _186  and  _187
REMARK   80  A    between atoms: _186  and  _189
REMARK   81  A    between atoms: _189  and  _190
REMARK   82  A    between atoms: _192  and  _194
REMARK   83  A    between atoms: _194  and  _195
REMARK   84  A    between atoms: _194  and  _197
REMARK   85  A    between atoms: _197  and  _198
REMARK   86  A    between atoms: _208  and  _210
REMARK   87  A    between atoms: _210  and  _211
REMARK   88  A    between atoms: _210  and  _213
REMARK   89  A    between atoms: _213  and  _214
REMARK   90  A    between atoms: _214  and  _215
REMARK   91  A    between atoms: _217  and  _219
REMARK   92  A    between atoms: _219  and  _220
REMARK   93  A    between atoms: _222  and  _224
REMARK   94  A    between atoms: _224  and  _225
REMARK   95  A    between atoms: _224  and  _227
REMARK   96  A    between atoms: _227  and  _228
REMARK   97  A    between atoms: _231  and  _233
REMARK   98  A    between atoms: _233  and  _234
REMARK   99  A    between atoms: _233  and  _236
REMARK  100  A    between atoms: _236  and  _237
REMARK  101  A    between atoms: _237  and  _238
REMARK  102  A    between atoms: _240  and  _242
REMARK  103  A    between atoms: _242  and  _243
REMARK  104  A    between atoms: _242  and  _245
REMARK  105  A    between atoms: _248  and  _250
REMARK  106  A    between atoms: _250  and  _251
REMARK  107  A    between atoms: _250  and  _253
REMARK  108  A    between atoms: _253  and  _254
REMARK  109  A    between atoms: _260  and  _262
REMARK  110  A    between atoms: _262  and  _263
REMARK  111  A    between atoms: _266  and  _268
REMARK  112  A    between atoms: _268  and  _269
REMARK  113  A    between atoms: _268  and  _271
REMARK  114  A    between atoms: _271  and  _272
REMARK  115  A    between atoms: _272  and  _273
REMARK  116  A    between atoms: _275  and  _277
REMARK  117  A    between atoms: _277  and  _278
REMARK  118  A    between atoms: _280  and  _282
REMARK  119  A    between atoms: _282  and  _283
REMARK  120  A    between atoms: _282  and  _285
REMARK  121  A    between atoms: _285  and  _286
REMARK  122  A    between atoms: _296  and  _298
REMARK  123  A    between atoms: _298  and  _299
REMARK  124  A    between atoms: _298  and  _301
REMARK  125  A    between atoms: _301  and  _302
REMARK  126  A    between atoms: _302  and  _303
REMARK  127  A    between atoms: _303  and  _304
REMARK  128  A    between atoms: _313  and  _315
REMARK  129  A    between atoms: _315  and  _316
REMARK  130  A    between atoms: _315  and  _318
REMARK  131  A    between atoms: _318  and  _319
REMARK  132  A    between atoms: _321  and  _323
REMARK  133  A    between atoms: _323  and  _324
REMARK  134  A    between atoms: _323  and  _326
REMARK  135  A    between atoms: _326  and  _327
REMARK  136  A    between atoms: _330  and  _332
REMARK  137  A    between atoms: _332  and  _333
REMARK  138  A    between atoms: _332  and  _335
REMARK  139  A    between atoms: _335  and  _336
REMARK  140  A    between atoms: _341  and  _342
REMARK  141  A    between atoms: _344  and  _346
REMARK  142  A    between atoms: _346  and  _347
REMARK  143  A    between atoms: _346  and  _349
REMARK  144  A    between atoms: _349  and  _350
REMARK  145  A    between atoms: _356  and  _358
REMARK  146  A    between atoms: _358  and  _359
REMARK  147  A    between atoms: _362  and  _364
REMARK  148  A    between atoms: _364  and  _365
REMARK  149  A    between atoms: _364  and  _367
REMARK  150  A    between atoms: _367  and  _368
REMARK  151  A    between atoms: _371  and  _373
REMARK  152  A    between atoms: _373  and  _374
REMARK  153  A    between atoms: _373  and  _376
REMARK  154  A    between atoms: _376  and  _377
REMARK  155  A    between atoms: _377  and  _378
REMARK  156  A    between atoms: _380  and  _382
REMARK  157  A    between atoms: _382  and  _383
REMARK  158  A    between atoms: _382  and  _385
REMARK  159  A    between atoms: _385  and  _386
REMARK  160  A    between atoms: _386  and  _387
REMARK  161  A    between atoms: _392  and  _394
REMARK  162  A    between atoms: _394  and  _395
REMARK  163  A    between atoms: _394  and  _397
REMARK  164  A    between atoms: _399  and  _401
REMARK  165  A    between atoms: _401  and  _402
REMARK  166  A    between atoms: _401  and  _404
REMARK  167  A    between atoms: _404  and  _405
REMARK  168  A    between atoms: _405  and  _406
REMARK  169  A    between atoms: _408  and  _410
REMARK  170  A    between atoms: _410  and  _411
REMARK  171  A    between atoms: _410  and  _413
REMARK  172  A    between atoms: _413  and  _414
REMARK  173  A    between atoms: _417  and  _419
REMARK  174  A    between atoms: _419  and  _420
REMARK  175  A    between atoms: _423  and  _425
REMARK  176  A    between atoms: _425  and  _426
REMARK  177  A    between atoms: _425  and  _428
REMARK  178  A    between atoms: _428  and  _429
REMARK  179  A    between atoms: _432  and  _434
REMARK  180  A    between atoms: _434  and  _435
REMARK  181  A    between atoms: _434  and  _437
REMARK  182  A    between atoms: _437  and  _438
REMARK  183  A    between atoms: _443  and  _445
REMARK  184  A    between atoms: _445  and  _446
REMARK  185  A    between atoms: _445  and  _448
REMARK  186  A    between atoms: _448  and  _449
REMARK  187  A    between atoms: _455  and  _457
REMARK  188  A    between atoms: _457  and  _458
REMARK  189  A    between atoms: _457  and  _460
REMARK  190  A    between atoms: _460  and  _461
REMARK  191  A    between atoms: _464  and  _466
REMARK  192  A    between atoms: _466  and  _467
REMARK  193  A    between atoms: _466  and  _469
REMARK  194  A    between atoms: _469  and  _470
REMARK  195  A    between atoms: _476  and  _478
REMARK  196  A    between atoms: _478  and  _479
REMARK  197  A    between atoms: _478  and  _481
REMARK  198  A    between atoms: _481  and  _482
REMARK  199  A    between atoms: _485  and  _487
REMARK  200  A    between atoms: _487  and  _488
REMARK  201  A    between atoms: _487  and  _490
REMARK  202  A    between atoms: _490  and  _491
REMARK  203  A    between atoms: _494  and  _496
REMARK  204  A    between atoms: _496  and  _497
REMARK  205  A    between atoms: _496  and  _499
REMARK  206  A    between atoms: _502  and  _504
REMARK  207  A    between atoms: _504  and  _505
REMARK  208  A    between atoms: _504  and  _507
REMARK  209  A    between atoms: _507  and  _508
REMARK  210  A    between atoms: _511  and  _513
REMARK  211  A    between atoms: _513  and  _514
REMARK  212  A    between atoms: _513  and  _516
REMARK  213  A    between atoms: _516  and  _517
REMARK  214  A    between atoms: _524  and  _525
REMARK  215  A    between atoms: _530  and  _532
REMARK  216  A    between atoms: _532  and  _533
REMARK  217  A    between atoms: _532  and  _535
REMARK  218  A    between atoms: _535  and  _536
REMARK  219  A    between atoms: _536  and  _537
REMARK  220  A    between atoms: _539  and  _541
REMARK  221  A    between atoms: _541  and  _542
REMARK  222  A    between atoms: _541  and  _544
REMARK  223  A    between atoms: _544  and  _545
REMARK  224  A    between atoms: _545  and  _546
REMARK  225  A    between atoms: _548  and  _550
REMARK  226  A    between atoms: _550  and  _551
REMARK  227  A    between atoms: _554  and  _556
REMARK  228  A    between atoms: _556  and  _557
REMARK  229  A    between atoms: _556  and  _559
REMARK  230  A    between atoms: _559  and  _560
REMARK  231  A    between atoms: _560  and  _561
REMARK  232  A    between atoms: _564  and  _566
REMARK  233  A    between atoms: _566  and  _567
REMARK  234  A    between atoms: _566  and  _569
REMARK  235  A    between atoms: _569  and  _570
REMARK  236  A    between atoms: _573  and  _575
REMARK  237  A    between atoms: _575  and  _576
REMARK  238  A    between atoms: _575  and  _578
REMARK  239  A    between atoms: _578  and  _579
REMARK  240  A    between atoms: _582  and  _584
REMARK  241  A    between atoms: _584  and  _585
REMARK  242  A    between atoms: _584  and  _587
REMARK  243  A    between atoms: _587  and  _588
REMARK  244  A    between atoms: _590  and  _592
REMARK  245  A    between atoms: _592  and  _593
REMARK  246  A    between atoms: _592  and  _595
REMARK  247  A    between atoms: _595  and  _596
REMARK  248  A    between atoms: _596  and  _597
REMARK  249  A    between atoms: _602  and  _604
REMARK  250  A    between atoms: _604  and  _605
REMARK  251  A    between atoms: _604  and  _607
REMARK  252  A    between atoms: _610  and  _612
REMARK  253  A    between atoms: _612  and  _613
REMARK  254  A    between atoms: _612  and  _615
REMARK  255  A    between atoms: _615  and  _616
REMARK                            x       y       z     vdW  Elec       q    Type
REMARK                         _______ _______ _______ _____ _____    ______ ____
ROOT
ATOM      1  O   HOH     1      26.340   0.925  14.103  0.00  0.00    +0.000 OA
ENDROOT
TORSDOF 0
REMARK  Name = ../refined-set-2016/3b67/3b67_pocket.pdb
REMARK  255 active torsions:
REMARK  status: ('A' for Active; 'I' for Inactive)
REMARK    1  A    between atoms: _1  and  _3
REMARK    2  A    between atoms: _3  and  _4
REMARK    3  A    between atoms: _3  and  _6
REMARK    4  A    between atoms: _9  and  _11
REMARK    5  A    between atoms: _11  and  _12
REMARK    6  A    between atoms: _15  and  _17
REMARK    7  A    between atoms: _17  and  _18
REMARK    8  A    between atoms: _17  and  _20
REMARK    9  A    between atoms: _20  and  _21
REMARK   10  A    between atoms: _24  and  _26
REMARK   11  A    between atoms: _26  and  _27
REMARK   12  A    between atoms: _26  and  _29
REMARK   13  A    between atoms: _29  and  _30
REMARK   14  A    between atoms: _33  and  _35
REMARK   15  A    between atoms: _35  and  _36
REMARK   16  A    between atoms: _35  and  _38
REMARK   17  A    between atoms: _38  and  _39
REMARK   18  A    between atoms: _41  and  _43
REMARK   19  A    between atoms: _43  and  _44
REMARK   20  A    between atoms: _43  and  _46
REMARK   21  A    between atoms: _46  and  _47
REMARK   22  A    between atoms: _49  and  _51
REMARK   23  A    between atoms: _51  and  _52
REMARK   24  A    between atoms: _51  and  _54
REMARK   25  A    between atoms: _54  and  _55
REMARK   26  A    between atoms: _58  and  _60
REMARK   27  A    between atoms: _60  and  _61
REMARK   28  A    between atoms: _60  and  _63
REMARK   29  A    between atoms: _63  and  _64
REMARK   30  A    between atoms: _69  and  _71
REMARK   31  A    between atoms: _71  and  _72
REMARK   32  A    between atoms: _71  and  _74
REMARK   33  A    between atoms: _74  and  _75
REMARK   34  A    between atoms: _75  and  _76
REMARK   35  A    between atoms: _79  and  _81
REMARK   36  A    between atoms: _81  and  _82
REMARK   37  A    between atoms: _81  and  _84
REMARK   38  A    between atoms: _84  and  _85
REMARK   39  A    between atoms: _88  and  _90
REMARK   40  A    between atoms: _90  and  _91
REMARK   41  A    between atoms: _93  and  _95
REMARK   42  A    between atoms: _95  and  _96
REMARK   43  A    between atoms: _95  and  _98
REMARK   44  A    between atoms: _98  and  _99
REMARK   45  A    between atoms: _99  and  _100
REMARK   46  A    between atoms: _103  and  _105
REMARK   47  A    between atoms: _105  and  _106
REMARK   48  A    between atoms: _105  and  _108
REMARK   49  A    between atoms: _108  and  _109
REMARK   50  A    between atoms: _109  and  _110
REMARK   51  A    between atoms: _110  and  _111
REMARK   52  A    between atoms: _120  and  _122
REMARK   53  A    between atoms: _122  and  _123
REMARK   54  A    between atoms: _122  and  _125
REMARK   55  A    between atoms: _125  and  _126
REMARK   56  A    between atoms: _126  and  _127
REMARK   57  A    between atoms: _132  and  _134
REMARK   58  A    between atoms: _134  and  _135
REMARK   59  A    between atoms: _134  and  _137
REMARK   60  A    between atoms: _137  and  _138
REMARK   61  A    between atoms: _141  and  _143
REMARK   62  A    between atoms: _143  and  _144
REMARK   63  A    between atoms: _143  and  _146
REMARK   64  A    between atoms: _149  and  _151
REMARK   65  A    between atoms: _151  and  _152
REMARK   66  A    between atoms: _151  and  _154
REMARK   67  A    between atoms: _154  and  _155
REMARK   68  A    between atoms: _158  and  _160
REMARK   69  A    between atoms: _160  and  _161
REMARK   70  A    between atoms: _160  and  _163
REMARK   71  A    between atoms: _163  and  _164
REMARK   72  A    between atoms: _164  and  _165
REMARK   73  A    between atoms: _170  and  _172
REMARK   74  A    between atoms: _172  and  _173
REMARK   75  A    between atoms: _172  and  _175
REMARK   76  A    between atoms: _175  and  _176
REMARK   77  A    between atoms: _181  and  _182
REMARK   78  A    between atoms: _184  and  _186
REMARK   79  A    between atoms: _186  and  _187
REMARK   80  A    between atoms: _186  and  _189
REMARK   81  A    between atoms: _189  and  _190
REMARK   82  A    between atoms: _192  and  _194
REMARK   83  A    between atoms: _194  and  _195
REMARK   84  A    between atoms: _194  and  _197
REMARK   85  A    between atoms: _197  and  _198
REMARK   86  A    between atoms: _208  and  _210
REMARK   87  A    between atoms: _210  and  _211
REMARK   88  A    between atoms: _210  and  _213
REMARK   89  A    between atoms: _213  and  _214
REMARK   90  A    between atoms: _214  and  _215
REMARK   91  A    between atoms: _217  and  _219
REMARK   92  A    between atoms: _219  and  _220
REMARK   93  A    between atoms: _222  and  _224
REMARK   94  A    between atoms: _224  and  _225
REMARK   95  A    between atoms: _224  and  _227
REMARK   96  A    between atoms: _227  and  _228
REMARK   97  A    between atoms: _231  and  _233
REMARK   98  A    between atoms: _233  and  _234
REMARK   99  A    between atoms: _233  and  _236
REMARK  100  A    between atoms: _236  and  _237
REMARK  101  A    between atoms: _237  and  _238
REMARK  102  A    between atoms: _240  and  _242
REMARK  103  A    between atoms: _242  and  _243
REMARK  104  A    between atoms: _242  and  _245
REMARK  105  A    between atoms: _248  and  _250
REMARK  106  A    between atoms: _250  and  _251
REMARK  107  A    between atoms: _250  and  _253
REMARK  108  A    between atoms: _253  and  _254
REMARK  109  A    between atoms: _260  and  _262
REMARK  110  A    between atoms: _262  and  _263
REMARK  111  A    between atoms: _266  and  _268
REMARK  112  A    between atoms: _268  and  _269
REMARK  113  A    between atoms: _268  and  _271
REMARK  114  A    between atoms: _271  and  _272
REMARK  115  A    between atoms: _272  and  _273
REMARK  116  A    between atoms: _275  and  _277
REMARK  117  A    between atoms: _277  and  _278
REMARK  118  A    between atoms: _280  and  _282
REMARK  119  A    between atoms: _282  and  _283
REMARK  120  A    between atoms: _282  and  _285
REMARK  121  A    between atoms: _285  and  _286
REMARK  122  A    between atoms: _296  and  _298
REMARK  123  A    between atoms: _298  and  _299
REMARK  124  A    between atoms: _298  and  _301
REMARK  125  A    between atoms: _301  and  _302
REMARK  126  A    between atoms: _302  and  _303
REMARK  127  A    between atoms: _303  and  _304
REMARK  128  A    between atoms: _313  and  _315
REMARK  129  A    between atoms: _315  and  _316
REMARK  130  A    between atoms: _315  and  _318
REMARK  131  A    between atoms: _318  and  _319
REMARK  132  A    between atoms: _321  and  _323
REMARK  133  A    between atoms: _323  and  _324
REMARK  134  A    between atoms: _323  and  _326
REMARK  135  A    between atoms: _326  and  _327
REMARK  136  A    between atoms: _330  and  _332
REMARK  137  A    between atoms: _332  and  _333
REMARK  138  A    between atoms: _332  and  _335
REMARK  139  A    between atoms: _335  and  _336
REMARK  140  A    between atoms: _341  and  _342
REMARK  141  A    between atoms: _344  and  _346
REMARK  142  A    between atoms: _346  and  _347
REMARK  143  A    between atoms: _346  and  _349
REMARK  144  A    between atoms: _349  and  _350
REMARK  145  A    between atoms: _356  and  _358
REMARK  146  A    between atoms: _358  and  _359
REMARK  147  A    between atoms: _362  and  _364
REMARK  148  A    between atoms: _364  and  _365
REMARK  149  A    between atoms: _364  and  _367
REMARK  150  A    between atoms: _367  and  _368
REMARK  151  A    between atoms: _371  and  _373
REMARK  152  A    between atoms: _373  and  _374
REMARK  153  A    between atoms: _373  and  _376
REMARK  154  A    between atoms: _376  and  _377
REMARK  155  A    between atoms: _377  and  _378
REMARK  156  A    between atoms: _380  and  _382
REMARK  157  A    between atoms: _382  and  _383
REMARK  158  A    between atoms: _382  and  _385
REMARK  159  A    between atoms: _385  and  _386
REMARK  160  A    between atoms: _386  and  _387
REMARK  161  A    between atoms: _392  and  _394
REMARK  162  A    between atoms: _394  and  _395
REMARK  163  A    between atoms: _394  and  _397
REMARK  164  A    between atoms: _399  and  _401
REMARK  165  A    between atoms: _401  and  _402
REMARK  166  A    between atoms: _401  and  _404
REMARK  167  A    between atoms: _404  and  _405
REMARK  168  A    between atoms: _405  and  _406
REMARK  169  A    between atoms: _408  and  _410
REMARK  170  A    between atoms: _410  and  _411
REMARK  171  A    between atoms: _410  and  _413
REMARK  172  A    between atoms: _413  and  _414
REMARK  173  A    between atoms: _417  and  _419
REMARK  174  A    between atoms: _419  and  _420
REMARK  175  A    between atoms: _423  and  _425
REMARK  176  A    between atoms: _425  and  _426
REMARK  177  A    between atoms: _425  and  _428
REMARK  178  A    between atoms: _428  and  _429
REMARK  179  A    between atoms: _432  and  _434
REMARK  180  A    between atoms: _434  and  _435
REMARK  181  A    between atoms: _434  and  _437
REMARK  182  A    between atoms: _437  and  _438
REMARK  183  A    between atoms: _443  and  _445
REMARK  184  A    between atoms: _445  and  _446
REMARK  185  A    between atoms: _445  and  _448
REMARK  186  A    between atoms: _448  and  _449
REMARK  187  A    between atoms: _455  and  _457
REMARK  188  A    between atoms: _457  and  _458
REMARK  189  A    between atoms: _457  and  _460
REMARK  190  A    between atoms: _460  and  _461
REMARK  191  A    between atoms: _464  and  _466
REMARK  192  A    between atoms: _466  and  _467
REMARK  193  A    between atoms: _466  and  _469
REMARK  194  A    between atoms: _469  and  _470
REMARK  195  A    between atoms: _476  and  _478
REMARK  196  A    between atoms: _478  and  _479
REMARK  197  A    between atoms: _478  and  _481
REMARK  198  A    between atoms: _481  and  _482
REMARK  199  A    between atoms: _485  and  _487
REMARK  200  A    between atoms: _487  and  _488
REMARK  201  A    between atoms: _487  and  _490
REMARK  202  A    between atoms: _490  and  _491
REMARK  203  A    between atoms: _494  and  _496
REMARK  204  A    between atoms: _496  and  _497
REMARK  205  A    between atoms: _496  and  _499
REMARK  206  A    between atoms: _502  and  _504
REMARK  207  A    between atoms: _504  and  _505
REMARK  208  A    between atoms: _504  and  _507
REMARK  209  A    between atoms: _507  and  _508
REMARK  210  A    between atoms: _511  and  _513
REMARK  211  A    between atoms: _513  and  _514
REMARK  212  A    between atoms: _513  and  _516
REMARK  213  A    between atoms: _516  and  _517
REMARK  214  A    between atoms: _524  and  _525
REMARK  215  A    between atoms: _530  and  _532
REMARK  216  A    between atoms: _532  and  _533
REMARK  217  A    between atoms: _532  and  _535
REMARK  218  A    between atoms: _535  and  _536
REMARK  219  A    between atoms: _536  and  _537
REMARK  220  A    between atoms: _539  and  _541
REMARK  221  A    between atoms: _541  and  _542
REMARK  222  A    between atoms: _541  and  _544
REMARK  223  A    between atoms: _544  and  _545
REMARK  224  A    between atoms: _545  and  _546
REMARK  225  A    between atoms: _548  and  _550
REMARK  226  A    between atoms: _550  and  _551
REMARK  227  A    between atoms: _554  and  _556
REMARK  228  A    between atoms: _556  and  _557
REMARK  229  A    between atoms: _556  and  _559
REMARK  230  A    between atoms: _559  and  _560
REMARK  231  A    between atoms: _560  and  _561
REMARK  232  A    between atoms: _564  and  _566
REMARK  233  A    between atoms: _566  and  _567
REMARK  234  A    between atoms: _566  and  _569
REMARK  235  A    between atoms: _569  and  _570
REMARK  236  A    between atoms: _573  and  _575
REMARK  237  A    between atoms: _575  and  _576
REMARK  238  A    between atoms: _575  and  _578
REMARK  239  A    between atoms: _578  and  _579
REMARK  240  A    between atoms: _582  and  _584
REMARK  241  A    between atoms: _584  and  _585
REMARK  242  A    between atoms: _584  and  _587
REMARK  243  A    between atoms: _587  and  _588
REMARK  244  A    between atoms: _590  and  _592
REMARK  245  A    between atoms: _592  and  _593
REMARK  246  A    between atoms: _592  and  _595
REMARK  247  A    between atoms: _595  and  _596
REMARK  248  A    between atoms: _596  and  _597
REMARK  249  A    between atoms: _602  and  _604
REMARK  250  A    between atoms: _604  and  _605
REMARK  251  A    between atoms: _604  and  _607
REMARK  252  A    between atoms: _610  and  _612
REMARK  253  A    between atoms: _612  and  _613
REMARK  254  A    between atoms: _612  and  _615
REMARK  255  A    between atoms: _615  and  _616
REMARK                            x       y       z     vdW  Elec       q    Type
REMARK                         _______ _______ _______ _____ _____    ______ ____
ROOT
ATOM      1  O   HOH     1      22.847   0.821  14.157  0.00  0.00    +0.000 OA
ENDROOT
TORSDOF 0
REMARK  Name = ../refined-set-2016/3b67/3b67_pocket.pdb
REMARK  255 active torsions:
REMARK  status: ('A' for Active; 'I' for Inactive)
REMARK    1  A    between atoms: _1  and  _3
REMARK    2  A    between atoms: _3  and  _4
REMARK    3  A    between atoms: _3  and  _6
REMARK    4  A    between atoms: _9  and  _11
REMARK    5  A    between atoms: _11  and  _12
REMARK    6  A    between atoms: _15  and  _17
REMARK    7  A    between atoms: _17  and  _18
REMARK    8  A    between atoms: _17  and  _20
REMARK    9  A    between atoms: _20  and  _21
REMARK   10  A    between atoms: _24  and  _26
REMARK   11  A    between atoms: _26  and  _27
REMARK   12  A    between atoms: _26  and  _29
REMARK   13  A    between atoms: _29  and  _30
REMARK   14  A    between atoms: _33  and  _35
REMARK   15  A    between atoms: _35  and  _36
REMARK   16  A    between atoms: _35  and  _38
REMARK   17  A    between atoms: _38  and  _39
REMARK   18  A    between atoms: _41  and  _43
REMARK   19  A    between atoms: _43  and  _44
REMARK   20  A    between atoms: _43  and  _46
REMARK   21  A    between atoms: _46  and  _47
REMARK   22  A    between atoms: _49  and  _51
REMARK   23  A    between atoms: _51  and  _52
REMARK   24  A    between atoms: _51  and  _54
REMARK   25  A    between atoms: _54  and  _55
REMARK   26  A    between atoms: _58  and  _60
REMARK   27  A    between atoms: _60  and  _61
REMARK   28  A    between atoms: _60  and  _63
REMARK   29  A    between atoms: _63  and  _64
REMARK   30  A    between atoms: _69  and  _71
REMARK   31  A    between atoms: _71  and  _72
REMARK   32  A    between atoms: _71  and  _74
REMARK   33  A    between atoms: _74  and  _75
REMARK   34  A    between atoms: _75  and  _76
REMARK   35  A    between atoms: _79  and  _81
REMARK   36  A    between atoms: _81  and  _82
REMARK   37  A    between atoms: _81  and  _84
REMARK   38  A    between atoms: _84  and  _85
REMARK   39  A    between atoms: _88  and  _90
REMARK   40  A    between atoms: _90  and  _91
REMARK   41  A    between atoms: _93  and  _95
REMARK   42  A    between atoms: _95  and  _96
REMARK   43  A    between atoms: _95  and  _98
REMARK   44  A    between atoms: _98  and  _99
REMARK   45  A    between atoms: _99  and  _100
REMARK   46  A    between atoms: _103  and  _105
REMARK   47  A    between atoms: _105  and  _106
REMARK   48  A    between atoms: _105  and  _108
REMARK   49  A    between atoms: _108  and  _109
REMARK   50  A    between atoms: _109  and  _110
REMARK   51  A    between atoms: _110  and  _111
REMARK   52  A    between atoms: _120  and  _122
REMARK   53  A    between atoms: _122  and  _123
REMARK   54  A    between atoms: _122  and  _125
REMARK   55  A    between atoms: _125  and  _126
REMARK   56  A    between atoms: _126  and  _127
REMARK   57  A    between atoms: _132  and  _134
REMARK   58  A    between atoms: _134  and  _135
REMARK   59  A    between atoms: _134  and  _137
REMARK   60  A    between atoms: _137  and  _138
REMARK   61  A    between atoms: _141  and  _143
REMARK   62  A    between atoms: _143  and  _144
REMARK   63  A    between atoms: _143  and  _146
REMARK   64  A    between atoms: _149  and  _151
REMARK   65  A    between atoms: _151  and  _152
REMARK   66  A    between atoms: _151  and  _154
REMARK   67  A    between atoms: _154  and  _155
REMARK   68  A    between atoms: _158  and  _160
REMARK   69  A    between atoms: _160  and  _161
REMARK   70  A    between atoms: _160  and  _163
REMARK   71  A    between atoms: _163  and  _164
REMARK   72  A    between atoms: _164  and  _165
REMARK   73  A    between atoms: _170  and  _172
REMARK   74  A    between atoms: _172  and  _173
REMARK   75  A    between atoms: _172  and  _175
REMARK   76  A    between atoms: _175  and  _176
REMARK   77  A    between atoms: _181  and  _182
REMARK   78  A    between atoms: _184  and  _186
REMARK   79  A    between atoms: _186  and  _187
REMARK   80  A    between atoms: _186  and  _189
REMARK   81  A    between atoms: _189  and  _190
REMARK   82  A    between atoms: _192  and  _194
REMARK   83  A    between atoms: _194  and  _195
REMARK   84  A    between atoms: _194  and  _197
REMARK   85  A    between atoms: _197  and  _198
REMARK   86  A    between atoms: _208  and  _210
REMARK   87  A    between atoms: _210  and  _211
REMARK   88  A    between atoms: _210  and  _213
REMARK   89  A    between atoms: _213  and  _214
REMARK   90  A    between atoms: _214  and  _215
REMARK   91  A    between atoms: _217  and  _219
REMARK   92  A    between atoms: _219  and  _220
REMARK   93  A    between atoms: _222  and  _224
REMARK   94  A    between atoms: _224  and  _225
REMARK   95  A    between atoms: _224  and  _227
REMARK   96  A    between atoms: _227  and  _228
REMARK   97  A    between atoms: _231  and  _233
REMARK   98  A    between atoms: _233  and  _234
REMARK   99  A    between atoms: _233  and  _236
REMARK  100  A    between atoms: _236  and  _237
REMARK  101  A    between atoms: _237  and  _238
REMARK  102  A    between atoms: _240  and  _242
REMARK  103  A    between atoms: _242  and  _243
REMARK  104  A    between atoms: _242  and  _245
REMARK  105  A    between atoms: _248  and  _250
REMARK  106  A    between atoms: _250  and  _251
REMARK  107  A    between atoms: _250  and  _253
REMARK  108  A    between atoms: _253  and  _254
REMARK  109  A    between atoms: _260  and  _262
REMARK  110  A    between atoms: _262  and  _263
REMARK  111  A    between atoms: _266  and  _268
REMARK  112  A    between atoms: _268  and  _269
REMARK  113  A    between atoms: _268  and  _271
REMARK  114  A    between atoms: _271  and  _272
REMARK  115  A    between atoms: _272  and  _273
REMARK  116  A    between atoms: _275  and  _277
REMARK  117  A    between atoms: _277  and  _278
REMARK  118  A    between atoms: _280  and  _282
REMARK  119  A    between atoms: _282  and  _283
REMARK  120  A    between atoms: _282  and  _285
REMARK  121  A    between atoms: _285  and  _286
REMARK  122  A    between atoms: _296  and  _298
REMARK  123  A    between atoms: _298  and  _299
REMARK  124  A    between atoms: _298  and  _301
REMARK  125  A    between atoms: _301  and  _302
REMARK  126  A    between atoms: _302  and  _303
REMARK  127  A    between atoms: _303  and  _304
REMARK  128  A    between atoms: _313  and  _315
REMARK  129  A    between atoms: _315  and  _316
REMARK  130  A    between atoms: _315  and  _318
REMARK  131  A    between atoms: _318  and  _319
REMARK  132  A    between atoms: _321  and  _323
REMARK  133  A    between atoms: _323  and  _324
REMARK  134  A    between atoms: _323  and  _326
REMARK  135  A    between atoms: _326  and  _327
REMARK  136  A    between atoms: _330  and  _332
REMARK  137  A    between atoms: _332  and  _333
REMARK  138  A    between atoms: _332  and  _335
REMARK  139  A    between atoms: _335  and  _336
REMARK  140  A    between atoms: _341  and  _342
REMARK  141  A    between atoms: _344  and  _346
REMARK  142  A    between atoms: _346  and  _347
REMARK  143  A    between atoms: _346  and  _349
REMARK  144  A    between atoms: _349  and  _350
REMARK  145  A    between atoms: _356  and  _358
REMARK  146  A    between atoms: _358  and  _359
REMARK  147  A    between atoms: _362  and  _364
REMARK  148  A    between atoms: _364  and  _365
REMARK  149  A    between atoms: _364  and  _367
REMARK  150  A    between atoms: _367  and  _368
REMARK  151  A    between atoms: _371  and  _373
REMARK  152  A    between atoms: _373  and  _374
REMARK  153  A    between atoms: _373  and  _376
REMARK  154  A    between atoms: _376  and  _377
REMARK  155  A    between atoms: _377  and  _378
REMARK  156  A    between atoms: _380  and  _382
REMARK  157  A    between atoms: _382  and  _383
REMARK  158  A    between atoms: _382  and  _385
REMARK  159  A    between atoms: _385  and  _386
REMARK  160  A    between atoms: _386  and  _387
REMARK  161  A    between atoms: _392  and  _394
REMARK  162  A    between atoms: _394  and  _395
REMARK  163  A    between atoms: _394  and  _397
REMARK  164  A    between atoms: _399  and  _401
REMARK  165  A    between atoms: _401  and  _402
REMARK  166  A    between atoms: _401  and  _404
REMARK  167  A    between atoms: _404  and  _405
REMARK  168  A    between atoms: _405  and  _406
REMARK  169  A    between atoms: _408  and  _410
REMARK  170  A    between atoms: _410  and  _411
REMARK  171  A    between atoms: _410  and  _413
REMARK  172  A    between atoms: _413  and  _414
REMARK  173  A    between atoms: _417  and  _419
REMARK  174  A    between atoms: _419  and  _420
REMARK  175  A    between atoms: _423  and  _425
REMARK  176  A    between atoms: _425  and  _426
REMARK  177  A    between atoms: _425  and  _428
REMARK  178  A    between atoms: _428  and  _429
REMARK  179  A    between atoms: _432  and  _434
REMARK  180  A    between atoms: _434  and  _435
REMARK  181  A    between atoms: _434  and  _437
REMARK  182  A    between atoms: _437  and  _438
REMARK  183  A    between atoms: _443  and  _445
REMARK  184  A    between atoms: _445  and  _446
REMARK  185  A    between atoms: _445  and  _448
REMARK  186  A    between atoms: _448  and  _449
REMARK  187  A    between atoms: _455  and  _457
REMARK  188  A    between atoms: _457  and  _458
REMARK  189  A    between atoms: _457  and  _460
REMARK  190  A    between atoms: _460  and  _461
REMARK  191  A    between atoms: _464  and  _466
REMARK  192  A    between atoms: _466  and  _467
REMARK  193  A    between atoms: _466  and  _469
REMARK  194  A    between atoms: _469  and  _470
REMARK  195  A    between atoms: _476  and  _478
REMARK  196  A    between atoms: _478  and  _479
REMARK  197  A    between atoms: _478  and  _481
REMARK  198  A    between atoms: _481  and  _482
REMARK  199  A    between atoms: _485  and  _487
REMARK  200  A    between atoms: _487  and  _488
REMARK  201  A    between atoms: _487  and  _490
REMARK  202  A    between atoms: _490  and  _491
REMARK  203  A    between atoms: _494  and  _496
REMARK  204  A    between atoms: _496  and  _497
REMARK  205  A    between atoms: _496  and  _499
REMARK  206  A    between atoms: _502  and  _504
REMARK  207  A    between atoms: _504  and  _505
REMARK  208  A    between atoms: _504  and  _507
REMARK  209  A    between atoms: _507  and  _508
REMARK  210  A    between atoms: _511  and  _513
REMARK  211  A    between atoms: _513  and  _514
REMARK  212  A    between atoms: _513  and  _516
REMARK  213  A    between atoms: _516  and  _517
REMARK  214  A    between atoms: _524  and  _525
REMARK  215  A    between atoms: _530  and  _532
REMARK  216  A    between atoms: _532  and  _533
REMARK  217  A    between atoms: _532  and  _535
REMARK  218  A    between atoms: _535  and  _536
REMARK  219  A    between atoms: _536  and  _537
REMARK  220  A    between atoms: _539  and  _541
REMARK  221  A    between atoms: _541  and  _542
REMARK  222  A    between atoms: _541  and  _544
REMARK  223  A    between atoms: _544  and  _545
REMARK  224  A    between atoms: _545  and  _546
REMARK  225  A    between atoms: _548  and  _550
REMARK  226  A    between atoms: _550  and  _551
REMARK  227  A    between atoms: _554  and  _556
REMARK  228  A    between atoms: _556  and  _557
REMARK  229  A    between atoms: _556  and  _559
REMARK  230  A    between atoms: _559  and  _560
REMARK  231  A    between atoms: _560  and  _561
REMARK  232  A    between atoms: _564  and  _566
REMARK  233  A    between atoms: _566  and  _567
REMARK  234  A    between atoms: _566  and  _569
REMARK  235  A    between atoms: _569  and  _570
REMARK  236  A    between atoms: _573  and  _575
REMARK  237  A    between atoms: _575  and  _576
REMARK  238  A    between atoms: _575  and  _578
REMARK  239  A    between atoms: _578  and  _579
REMARK  240  A    between atoms: _582  and  _584
REMARK  241  A    between atoms: _584  and  _585
REMARK  242  A    between atoms: _584  and  _587
REMARK  243  A    between atoms: _587  and  _588
REMARK  244  A    between atoms: _590  and  _592
REMARK  245  A    between atoms: _592  and  _593
REMARK  246  A    between atoms: _592  and  _595
REMARK  247  A    between atoms: _595  and  _596
REMARK  248  A    between atoms: _596  and  _597
REMARK  249  A    between atoms: _602  and  _604
REMARK  250  A    between atoms: _604  and  _605
REMARK  251  A    between atoms: _604  and  _607
REMARK  252  A    between atoms: _610  and  _612
REMARK  253  A    between atoms: _612  and  _613
REMARK  254  A    between atoms: _612  and  _615
REMARK  255  A    between atoms: _615  and  _616
REMARK                            x       y       z     vdW  Elec       q    Type
REMARK                         _______ _______ _______ _____ _____    ______ ____
ROOT
ATOM      1  O   HOH     1      23.293   9.208   5.997  0.00  0.00    +0.000 OA
ENDROOT
TORSDOF 0
REMARK  Name = ../refined-set-2016/3b67/3b67_pocket.pdb
REMARK  255 active torsions:
REMARK  status: ('A' for Active; 'I' for Inactive)
REMARK    1  A    between atoms: _1  and  _3
REMARK    2  A    between atoms: _3  and  _4
REMARK    3  A    between atoms: _3  and  _6
REMARK    4  A    between atoms: _9  and  _11
REMARK    5  A    between atoms: _11  and  _12
REMARK    6  A    between atoms: _15  and  _17
REMARK    7  A    between atoms: _17  and  _18
REMARK    8  A    between atoms: _17  and  _20
REMARK    9  A    between atoms: _20  and  _21
REMARK   10  A    between atoms: _24  and  _26
REMARK   11  A    between atoms: _26  and  _27
REMARK   12  A    between atoms: _26  and  _29
REMARK   13  A    between atoms: _29  and  _30
REMARK   14  A    between atoms: _33  and  _35
REMARK   15  A    between atoms: _35  and  _36
REMARK   16  A    between atoms: _35  and  _38
REMARK   17  A    between atoms: _38  and  _39
REMARK   18  A    between atoms: _41  and  _43
REMARK   19  A    between atoms: _43  and  _44
REMARK   20  A    between atoms: _43  and  _46
REMARK   21  A    between atoms: _46  and  _47
REMARK   22  A    between atoms: _49  and  _51
REMARK   23  A    between atoms: _51  and  _52
REMARK   24  A    between atoms: _51  and  _54
REMARK   25  A    between atoms: _54  and  _55
REMARK   26  A    between atoms: _58  and  _60
REMARK   27  A    between atoms: _60  and  _61
REMARK   28  A    between atoms: _60  and  _63
REMARK   29  A    between atoms: _63  and  _64
REMARK   30  A    between atoms: _69  and  _71
REMARK   31  A    between atoms: _71  and  _72
REMARK   32  A    between atoms: _71  and  _74
REMARK   33  A    between atoms: _74  and  _75
REMARK   34  A    between atoms: _75  and  _76
REMARK   35  A    between atoms: _79  and  _81
REMARK   36  A    between atoms: _81  and  _82
REMARK   37  A    between atoms: _81  and  _84
REMARK   38  A    between atoms: _84  and  _85
REMARK   39  A    between atoms: _88  and  _90
REMARK   40  A    between atoms: _90  and  _91
REMARK   41  A    between atoms: _93  and  _95
REMARK   42  A    between atoms: _95  and  _96
REMARK   43  A    between atoms: _95  and  _98
REMARK   44  A    between atoms: _98  and  _99
REMARK   45  A    between atoms: _99  and  _100
REMARK   46  A    between atoms: _103  and  _105
REMARK   47  A    between atoms: _105  and  _106
REMARK   48  A    between atoms: _105  and  _108
REMARK   49  A    between atoms: _108  and  _109
REMARK   50  A    between atoms: _109  and  _110
REMARK   51  A    between atoms: _110  and  _111
REMARK   52  A    between atoms: _120  and  _122
REMARK   53  A    between atoms: _122  and  _123
REMARK   54  A    between atoms: _122  and  _125
REMARK   55  A    between atoms: _125  and  _126
REMARK   56  A    between atoms: _126  and  _127
REMARK   57  A    between atoms: _132  and  _134
REMARK   58  A    between atoms: _134  and  _135
REMARK   59  A    between atoms: _134  and  _137
REMARK   60  A    between atoms: _137  and  _138
REMARK   61  A    between atoms: _141  and  _143
REMARK   62  A    between atoms: _143  and  _144
REMARK   63  A    between atoms: _143  and  _146
REMARK   64  A    between atoms: _149  and  _151
REMARK   65  A    between atoms: _151  and  _152
REMARK   66  A    between atoms: _151  and  _154
REMARK   67  A    between atoms: _154  and  _155
REMARK   68  A    between atoms: _158  and  _160
REMARK   69  A    between atoms: _160  and  _161
REMARK   70  A    between atoms: _160  and  _163
REMARK   71  A    between atoms: _163  and  _164
REMARK   72  A    between atoms: _164  and  _165
REMARK   73  A    between atoms: _170  and  _172
REMARK   74  A    between atoms: _172  and  _173
REMARK   75  A    between atoms: _172  and  _175
REMARK   76  A    between atoms: _175  and  _176
REMARK   77  A    between atoms: _181  and  _182
REMARK   78  A    between atoms: _184  and  _186
REMARK   79  A    between atoms: _186  and  _187
REMARK   80  A    between atoms: _186  and  _189
REMARK   81  A    between atoms: _189  and  _190
REMARK   82  A    between atoms: _192  and  _194
REMARK   83  A    between atoms: _194  and  _195
REMARK   84  A    between atoms: _194  and  _197
REMARK   85  A    between atoms: _197  and  _198
REMARK   86  A    between atoms: _208  and  _210
REMARK   87  A    between atoms: _210  and  _211
REMARK   88  A    between atoms: _210  and  _213
REMARK   89  A    between atoms: _213  and  _214
REMARK   90  A    between atoms: _214  and  _215
REMARK   91  A    between atoms: _217  and  _219
REMARK   92  A    between atoms: _219  and  _220
REMARK   93  A    between atoms: _222  and  _224
REMARK   94  A    between atoms: _224  and  _225
REMARK   95  A    between atoms: _224  and  _227
REMARK   96  A    between atoms: _227  and  _228
REMARK   97  A    between atoms: _231  and  _233
REMARK   98  A    between atoms: _233  and  _234
REMARK   99  A    between atoms: _233  and  _236
REMARK  100  A    between atoms: _236  and  _237
REMARK  101  A    between atoms: _237  and  _238
REMARK  102  A    between atoms: _240  and  _242
REMARK  103  A    between atoms: _242  and  _243
REMARK  104  A    between atoms: _242  and  _245
REMARK  105  A    between atoms: _248  and  _250
REMARK  106  A    between atoms: _250  and  _251
REMARK  107  A    between atoms: _250  and  _253
REMARK  108  A    between atoms: _253  and  _254
REMARK  109  A    between atoms: _260  and  _262
REMARK  110  A    between atoms: _262  and  _263
REMARK  111  A    between atoms: _266  and  _268
REMARK  112  A    between atoms: _268  and  _269
REMARK  113  A    between atoms: _268  and  _271
REMARK  114  A    between atoms: _271  and  _272
REMARK  115  A    between atoms: _272  and  _273
REMARK  116  A    between atoms: _275  and  _277
REMARK  117  A    between atoms: _277  and  _278
REMARK  118  A    between atoms: _280  and  _282
REMARK  119  A    between atoms: _282  and  _283
REMARK  120  A    between atoms: _282  and  _285
REMARK  121  A    between atoms: _285  and  _286
REMARK  122  A    between atoms: _296  and  _298
REMARK  123  A    between atoms: _298  and  _299
REMARK  124  A    between atoms: _298  and  _301
REMARK  125  A    between atoms: _301  and  _302
REMARK  126  A    between atoms: _302  and  _303
REMARK  127  A    between atoms: _303  and  _304
REMARK  128  A    between atoms: _313  and  _315
REMARK  129  A    between atoms: _315  and  _316
REMARK  130  A    between atoms: _315  and  _318
REMARK  131  A    between atoms: _318  and  _319
REMARK  132  A    between atoms: _321  and  _323
REMARK  133  A    between atoms: _323  and  _324
REMARK  134  A    between atoms: _323  and  _326
REMARK  135  A    between atoms: _326  and  _327
REMARK  136  A    between atoms: _330  and  _332
REMARK  137  A    between atoms: _332  and  _333
REMARK  138  A    between atoms: _332  and  _335
REMARK  139  A    between atoms: _335  and  _336
REMARK  140  A    between atoms: _341  and  _342
REMARK  141  A    between atoms: _344  and  _346
REMARK  142  A    between atoms: _346  and  _347
REMARK  143  A    between atoms: _346  and  _349
REMARK  144  A    between atoms: _349  and  _350
REMARK  145  A    between atoms: _356  and  _358
REMARK  146  A    between atoms: _358  and  _359
REMARK  147  A    between atoms: _362  and  _364
REMARK  148  A    between atoms: _364  and  _365
REMARK  149  A    between atoms: _364  and  _367
REMARK  150  A    between atoms: _367  and  _368
REMARK  151  A    between atoms: _371  and  _373
REMARK  152  A    between atoms: _373  and  _374
REMARK  153  A    between atoms: _373  and  _376
REMARK  154  A    between atoms: _376  and  _377
REMARK  155  A    between atoms: _377  and  _378
REMARK  156  A    between atoms: _380  and  _382
REMARK  157  A    between atoms: _382  and  _383
REMARK  158  A    between atoms: _382  and  _385
REMARK  159  A    between atoms: _385  and  _386
REMARK  160  A    between atoms: _386  and  _387
REMARK  161  A    between atoms: _392  and  _394
REMARK  162  A    between atoms: _394  and  _395
REMARK  163  A    between atoms: _394  and  _397
REMARK  164  A    between atoms: _399  and  _401
REMARK  165  A    between atoms: _401  and  _402
REMARK  166  A    between atoms: _401  and  _404
REMARK  167  A    between atoms: _404  and  _405
REMARK  168  A    between atoms: _405  and  _406
REMARK  169  A    between atoms: _408  and  _410
REMARK  170  A    between atoms: _410  and  _411
REMARK  171  A    between atoms: _410  and  _413
REMARK  172  A    between atoms: _413  and  _414
REMARK  173  A    between atoms: _417  and  _419
REMARK  174  A    between atoms: _419  and  _420
REMARK  175  A    between atoms: _423  and  _425
REMARK  176  A    between atoms: _425  and  _426
REMARK  177  A    between atoms: _425  and  _428
REMARK  178  A    between atoms: _428  and  _429
REMARK  179  A    between atoms: _432  and  _434
REMARK  180  A    between atoms: _434  and  _435
REMARK  181  A    between atoms: _434  and  _437
REMARK  182  A    between atoms: _437  and  _438
REMARK  183  A    between atoms: _443  and  _445
REMARK  184  A    between atoms: _445  and  _446
REMARK  185  A    between atoms: _445  and  _448
REMARK  186  A    between atoms: _448  and  _449
REMARK  187  A    between atoms: _455  and  _457
REMARK  188  A    between atoms: _457  and  _458
REMARK  189  A    between atoms: _457  and  _460
REMARK  190  A    between atoms: _460  and  _461
REMARK  191  A    between atoms: _464  and  _466
REMARK  192  A    between atoms: _466  and  _467
REMARK  193  A    between atoms: _466  and  _469
REMARK  194  A    between atoms: _469  and  _470
REMARK  195  A    between atoms: _476  and  _478
REMARK  196  A    between atoms: _478  and  _479
REMARK  197  A    between atoms: _478  and  _481
REMARK  198  A    between atoms: _481  and  _482
REMARK  199  A    between atoms: _485  and  _487
REMARK  200  A    between atoms: _487  and  _488
REMARK  201  A    between atoms: _487  and  _490
REMARK  202  A    between atoms: _490  and  _491
REMARK  203  A    between atoms: _494  and  _496
REMARK  204  A    between atoms: _496  and  _497
REMARK  205  A    between atoms: _496  and  _499
REMARK  206  A    between atoms: _502  and  _504
REMARK  207  A    between atoms: _504  and  _505
REMARK  208  A    between atoms: _504  and  _507
REMARK  209  A    between atoms: _507  and  _508
REMARK  210  A    between atoms: _511  and  _513
REMARK  211  A    between atoms: _513  and  _514
REMARK  212  A    between atoms: _513  and  _516
REMARK  213  A    between atoms: _516  and  _517
REMARK  214  A    between atoms: _524  and  _525
REMARK  215  A    between atoms: _530  and  _532
REMARK  216  A    between atoms: _532  and  _533
REMARK  217  A    between atoms: _532  and  _535
REMARK  218  A    between atoms: _535  and  _536
REMARK  219  A    between atoms: _536  and  _537
REMARK  220  A    between atoms: _539  and  _541
REMARK  221  A    between atoms: _541  and  _542
REMARK  222  A    between atoms: _541  and  _544
REMARK  223  A    between atoms: _544  and  _545
REMARK  224  A    between atoms: _545  and  _546
REMARK  225  A    between atoms: _548  and  _550
REMARK  226  A    between atoms: _550  and  _551
REMARK  227  A    between atoms: _554  and  _556
REMARK  228  A    between atoms: _556  and  _557
REMARK  229  A    between atoms: _556  and  _559
REMARK  230  A    between atoms: _559  and  _560
REMARK  231  A    between atoms: _560  and  _561
REMARK  232  A    between atoms: _564  and  _566
REMARK  233  A    between atoms: _566  and  _567
REMARK  234  A    between atoms: _566  and  _569
REMARK  235  A    between atoms: _569  and  _570
REMARK  236  A    between atoms: _573  and  _575
REMARK  237  A    between atoms: _575  and  _576
REMARK  238  A    between atoms: _575  and  _578
REMARK  239  A    between atoms: _578  and  _579
REMARK  240  A    between atoms: _582  and  _584
REMARK  241  A    between atoms: _584  and  _585
REMARK  242  A    between atoms: _584  and  _587
REMARK  243  A    between atoms: _587  and  _588
REMARK  244  A    between atoms: _590  and  _592
REMARK  245  A    between atoms: _592  and  _593
REMARK  246  A    between atoms: _592  and  _595
REMARK  247  A    between atoms: _595  and  _596
REMARK  248  A    between atoms: _596  and  _597
REMARK  249  A    between atoms: _602  and  _604
REMARK  250  A    between atoms: _604  and  _605
REMARK  251  A    between atoms: _604  and  _607
REMARK  252  A    between atoms: _610  and  _612
REMARK  253  A    between atoms: _612  and  _613
REMARK  254  A    between atoms: _612  and  _615
REMARK  255  A    between atoms: _615  and  _616
REMARK                            x       y       z     vdW  Elec       q    Type
REMARK                         _______ _______ _______ _____ _____    ______ ____
ROOT
ATOM      1  O   HOH     1      26.090  12.323   2.207  0.00  0.00    +0.000 OA
ENDROOT
TORSDOF 0
REMARK  Name = ../refined-set-2016/3b67/3b67_pocket.pdb
REMARK  255 active torsions:
REMARK  status: ('A' for Active; 'I' for Inactive)
REMARK    1  A    between atoms: _1  and  _3
REMARK    2  A    between atoms: _3  and  _4
REMARK    3  A    between atoms: _3  and  _6
REMARK    4  A    between atoms: _9  and  _11
REMARK    5  A    between atoms: _11  and  _12
REMARK    6  A    between atoms: _15  and  _17
REMARK    7  A    between atoms: _17  and  _18
REMARK    8  A    between atoms: _17  and  _20
REMARK    9  A    between atoms: _20  and  _21
REMARK   10  A    between atoms: _24  and  _26
REMARK   11  A    between atoms: _26  and  _27
REMARK   12  A    between atoms: _26  and  _29
REMARK   13  A    between atoms: _29  and  _30
REMARK   14  A    between atoms: _33  and  _35
REMARK   15  A    between atoms: _35  and  _36
REMARK   16  A    between atoms: _35  and  _38
REMARK   17  A    between atoms: _38  and  _39
REMARK   18  A    between atoms: _41  and  _43
REMARK   19  A    between atoms: _43  and  _44
REMARK   20  A    between atoms: _43  and  _46
REMARK   21  A    between atoms: _46  and  _47
REMARK   22  A    between atoms: _49  and  _51
REMARK   23  A    between atoms: _51  and  _52
REMARK   24  A    between atoms: _51  and  _54
REMARK   25  A    between atoms: _54  and  _55
REMARK   26  A    between atoms: _58  and  _60
REMARK   27  A    between atoms: _60  and  _61
REMARK   28  A    between atoms: _60  and  _63
REMARK   29  A    between atoms: _63  and  _64
REMARK   30  A    between atoms: _69  and  _71
REMARK   31  A    between atoms: _71  and  _72
REMARK   32  A    between atoms: _71  and  _74
REMARK   33  A    between atoms: _74  and  _75
REMARK   34  A    between atoms: _75  and  _76
REMARK   35  A    between atoms: _79  and  _81
REMARK   36  A    between atoms: _81  and  _82
REMARK   37  A    between atoms: _81  and  _84
REMARK   38  A    between atoms: _84  and  _85
REMARK   39  A    between atoms: _88  and  _90
REMARK   40  A    between atoms: _90  and  _91
REMARK   41  A    between atoms: _93  and  _95
REMARK   42  A    between atoms: _95  and  _96
REMARK   43  A    between atoms: _95  and  _98
REMARK   44  A    between atoms: _98  and  _99
REMARK   45  A    between atoms: _99  and  _100
REMARK   46  A    between atoms: _103  and  _105
REMARK   47  A    between atoms: _105  and  _106
REMARK   48  A    between atoms: _105  and  _108
REMARK   49  A    between atoms: _108  and  _109
REMARK   50  A    between atoms: _109  and  _110
REMARK   51  A    between atoms: _110  and  _111
REMARK   52  A    between atoms: _120  and  _122
REMARK   53  A    between atoms: _122  and  _123
REMARK   54  A    between atoms: _122  and  _125
REMARK   55  A    between atoms: _125  and  _126
REMARK   56  A    between atoms: _126  and  _127
REMARK   57  A    between atoms: _132  and  _134
REMARK   58  A    between atoms: _134  and  _135
REMARK   59  A    between atoms: _134  and  _137
REMARK   60  A    between atoms: _137  and  _138
REMARK   61  A    between atoms: _141  and  _143
REMARK   62  A    between atoms: _143  and  _144
REMARK   63  A    between atoms: _143  and  _146
REMARK   64  A    between atoms: _149  and  _151
REMARK   65  A    between atoms: _151  and  _152
REMARK   66  A    between atoms: _151  and  _154
REMARK   67  A    between atoms: _154  and  _155
REMARK   68  A    between atoms: _158  and  _160
REMARK   69  A    between atoms: _160  and  _161
REMARK   70  A    between atoms: _160  and  _163
REMARK   71  A    between atoms: _163  and  _164
REMARK   72  A    between atoms: _164  and  _165
REMARK   73  A    between atoms: _170  and  _172
REMARK   74  A    between atoms: _172  and  _173
REMARK   75  A    between atoms: _172  and  _175
REMARK   76  A    between atoms: _175  and  _176
REMARK   77  A    between atoms: _181  and  _182
REMARK   78  A    between atoms: _184  and  _186
REMARK   79  A    between atoms: _186  and  _187
REMARK   80  A    between atoms: _186  and  _189
REMARK   81  A    between atoms: _189  and  _190
REMARK   82  A    between atoms: _192  and  _194
REMARK   83  A    between atoms: _194  and  _195
REMARK   84  A    between atoms: _194  and  _197
REMARK   85  A    between atoms: _197  and  _198
REMARK   86  A    between atoms: _208  and  _210
REMARK   87  A    between atoms: _210  and  _211
REMARK   88  A    between atoms: _210  and  _213
REMARK   89  A    between atoms: _213  and  _214
REMARK   90  A    between atoms: _214  and  _215
REMARK   91  A    between atoms: _217  and  _219
REMARK   92  A    between atoms: _219  and  _220
REMARK   93  A    between atoms: _222  and  _224
REMARK   94  A    between atoms: _224  and  _225
REMARK   95  A    between atoms: _224  and  _227
REMARK   96  A    between atoms: _227  and  _228
REMARK   97  A    between atoms: _231  and  _233
REMARK   98  A    between atoms: _233  and  _234
REMARK   99  A    between atoms: _233  and  _236
REMARK  100  A    between atoms: _236  and  _237
REMARK  101  A    between atoms: _237  and  _238
REMARK  102  A    between atoms: _240  and  _242
REMARK  103  A    between atoms: _242  and  _243
REMARK  104  A    between atoms: _242  and  _245
REMARK  105  A    between atoms: _248  and  _250
REMARK  106  A    between atoms: _250  and  _251
REMARK  107  A    between atoms: _250  and  _253
REMARK  108  A    between atoms: _253  and  _254
REMARK  109  A    between atoms: _260  and  _262
REMARK  110  A    between atoms: _262  and  _263
REMARK  111  A    between atoms: _266  and  _268
REMARK  112  A    between atoms: _268  and  _269
REMARK  113  A    between atoms: _268  and  _271
REMARK  114  A    between atoms: _271  and  _272
REMARK  115  A    between atoms: _272  and  _273
REMARK  116  A    between atoms: _275  and  _277
REMARK  117  A    between atoms: _277  and  _278
REMARK  118  A    between atoms: _280  and  _282
REMARK  119  A    between atoms: _282  and  _283
REMARK  120  A    between atoms: _282  and  _285
REMARK  121  A    between atoms: _285  and  _286
REMARK  122  A    between atoms: _296  and  _298
REMARK  123  A    between atoms: _298  and  _299
REMARK  124  A    between atoms: _298  and  _301
REMARK  125  A    between atoms: _301  and  _302
REMARK  126  A    between atoms: _302  and  _303
REMARK  127  A    between atoms: _303  and  _304
REMARK  128  A    between atoms: _313  and  _315
REMARK  129  A    between atoms: _315  and  _316
REMARK  130  A    between atoms: _315  and  _318
REMARK  131  A    between atoms: _318  and  _319
REMARK  132  A    between atoms: _321  and  _323
REMARK  133  A    between atoms: _323  and  _324
REMARK  134  A    between atoms: _323  and  _326
REMARK  135  A    between atoms: _326  and  _327
REMARK  136  A    between atoms: _330  and  _332
REMARK  137  A    between atoms: _332  and  _333
REMARK  138  A    between atoms: _332  and  _335
REMARK  139  A    between atoms: _335  and  _336
REMARK  140  A    between atoms: _341  and  _342
REMARK  141  A    between atoms: _344  and  _346
REMARK  142  A    between atoms: _346  and  _347
REMARK  143  A    between atoms: _346  and  _349
REMARK  144  A    between atoms: _349  and  _350
REMARK  145  A    between atoms: _356  and  _358
REMARK  146  A    between atoms: _358  and  _359
REMARK  147  A    between atoms: _362  and  _364
REMARK  148  A    between atoms: _364  and  _365
REMARK  149  A    between atoms: _364  and  _367
REMARK  150  A    between atoms: _367  and  _368
REMARK  151  A    between atoms: _371  and  _373
REMARK  152  A    between atoms: _373  and  _374
REMARK  153  A    between atoms: _373  and  _376
REMARK  154  A    between atoms: _376  and  _377
REMARK  155  A    between atoms: _377  and  _378
REMARK  156  A    between atoms: _380  and  _382
REMARK  157  A    between atoms: _382  and  _383
REMARK  158  A    between atoms: _382  and  _385
REMARK  159  A    between atoms: _385  and  _386
REMARK  160  A    between atoms: _386  and  _387
REMARK  161  A    between atoms: _392  and  _394
REMARK  162  A    between atoms: _394  and  _395
REMARK  163  A    between atoms: _394  and  _397
REMARK  164  A    between atoms: _399  and  _401
REMARK  165  A    between atoms: _401  and  _402
REMARK  166  A    between atoms: _401  and  _404
REMARK  167  A    between atoms: _404  and  _405
REMARK  168  A    between atoms: _405  and  _406
REMARK  169  A    between atoms: _408  and  _410
REMARK  170  A    between atoms: _410  and  _411
REMARK  171  A    between atoms: _410  and  _413
REMARK  172  A    between atoms: _413  and  _414
REMARK  173  A    between atoms: _417  and  _419
REMARK  174  A    between atoms: _419  and  _420
REMARK  175  A    between atoms: _423  and  _425
REMARK  176  A    between atoms: _425  and  _426
REMARK  177  A    between atoms: _425  and  _428
REMARK  178  A    between atoms: _428  and  _429
REMARK  179  A    between atoms: _432  and  _434
REMARK  180  A    between atoms: _434  and  _435
REMARK  181  A    between atoms: _434  and  _437
REMARK  182  A    between atoms: _437  and  _438
REMARK  183  A    between atoms: _443  and  _445
REMARK  184  A    between atoms: _445  and  _446
REMARK  185  A    between atoms: _445  and  _448
REMARK  186  A    between atoms: _448  and  _449
REMARK  187  A    between atoms: _455  and  _457
REMARK  188  A    between atoms: _457  and  _458
REMARK  189  A    between atoms: _457  and  _460
REMARK  190  A    between atoms: _460  and  _461
REMARK  191  A    between atoms: _464  and  _466
REMARK  192  A    between atoms: _466  and  _467
REMARK  193  A    between atoms: _466  and  _469
REMARK  194  A    between atoms: _469  and  _470
REMARK  195  A    between atoms: _476  and  _478
REMARK  196  A    between atoms: _478  and  _479
REMARK  197  A    between atoms: _478  and  _481
REMARK  198  A    between atoms: _481  and  _482
REMARK  199  A    between atoms: _485  and  _487
REMARK  200  A    between atoms: _487  and  _488
REMARK  201  A    between atoms: _487  and  _490
REMARK  202  A    between atoms: _490  and  _491
REMARK  203  A    between atoms: _494  and  _496
REMARK  204  A    between atoms: _496  and  _497
REMARK  205  A    between atoms: _496  and  _499
REMARK  206  A    between atoms: _502  and  _504
REMARK  207  A    between atoms: _504  and  _505
REMARK  208  A    between atoms: _504  and  _507
REMARK  209  A    between atoms: _507  and  _508
REMARK  210  A    between atoms: _511  and  _513
REMARK  211  A    between atoms: _513  and  _514
REMARK  212  A    between atoms: _513  and  _516
REMARK  213  A    between atoms: _516  and  _517
REMARK  214  A    between atoms: _524  and  _525
REMARK  215  A    between atoms: _530  and  _532
REMARK  216  A    between atoms: _532  and  _533
REMARK  217  A    between atoms: _532  and  _535
REMARK  218  A    between atoms: _535  and  _536
REMARK  219  A    between atoms: _536  and  _537
REMARK  220  A    between atoms: _539  and  _541
REMARK  221  A    between atoms: _541  and  _542
REMARK  222  A    between atoms: _541  and  _544
REMARK  223  A    between atoms: _544  and  _545
REMARK  224  A    between atoms: _545  and  _546
REMARK  225  A    between atoms: _548  and  _550
REMARK  226  A    between atoms: _550  and  _551
REMARK  227  A    between atoms: _554  and  _556
REMARK  228  A    between atoms: _556  and  _557
REMARK  229  A    between atoms: _556  and  _559
REMARK  230  A    between atoms: _559  and  _560
REMARK  231  A    between atoms: _560  and  _561
REMARK  232  A    between atoms: _564  and  _566
REMARK  233  A    between atoms: _566  and  _567
REMARK  234  A    between atoms: _566  and  _569
REMARK  235  A    between atoms: _569  and  _570
REMARK  236  A    between atoms: _573  and  _575
REMARK  237  A    between atoms: _575  and  _576
REMARK  238  A    between atoms: _575  and  _578
REMARK  239  A    between atoms: _578  and  _579
REMARK  240  A    between atoms: _582  and  _584
REMARK  241  A    between atoms: _584  and  _585
REMARK  242  A    between atoms: _584  and  _587
REMARK  243  A    between atoms: _587  and  _588
REMARK  244  A    between atoms: _590  and  _592
REMARK  245  A    between atoms: _592  and  _593
REMARK  246  A    between atoms: _592  and  _595
REMARK  247  A    between atoms: _595  and  _596
REMARK  248  A    between atoms: _596  and  _597
REMARK  249  A    between atoms: _602  and  _604
REMARK  250  A    between atoms: _604  and  _605
REMARK  251  A    between atoms: _604  and  _607
REMARK  252  A    between atoms: _610  and  _612
REMARK  253  A    between atoms: _612  and  _613
REMARK  254  A    between atoms: _612  and  _615
REMARK  255  A    between atoms: _615  and  _616
REMARK                            x       y       z     vdW  Elec       q    Type
REMARK                         _______ _______ _______ _____ _____    ______ ____
ROOT
ATOM      1  O   HOH     1      25.197  15.035   2.538  0.00  0.00    +0.000 OA
ENDROOT
TORSDOF 0
REMARK  Name = ../refined-set-2016/3b67/3b67_pocket.pdb
REMARK  255 active torsions:
REMARK  status: ('A' for Active; 'I' for Inactive)
REMARK    1  A    between atoms: _1  and  _3
REMARK    2  A    between atoms: _3  and  _4
REMARK    3  A    between atoms: _3  and  _6
REMARK    4  A    between atoms: _9  and  _11
REMARK    5  A    between atoms: _11  and  _12
REMARK    6  A    between atoms: _15  and  _17
REMARK    7  A    between atoms: _17  and  _18
REMARK    8  A    between atoms: _17  and  _20
REMARK    9  A    between atoms: _20  and  _21
REMARK   10  A    between atoms: _24  and  _26
REMARK   11  A    between atoms: _26  and  _27
REMARK   12  A    between atoms: _26  and  _29
REMARK   13  A    between atoms: _29  and  _30
REMARK   14  A    between atoms: _33  and  _35
REMARK   15  A    between atoms: _35  and  _36
REMARK   16  A    between atoms: _35  and  _38
REMARK   17  A    between atoms: _38  and  _39
REMARK   18  A    between atoms: _41  and  _43
REMARK   19  A    between atoms: _43  and  _44
REMARK   20  A    between atoms: _43  and  _46
REMARK   21  A    between atoms: _46  and  _47
REMARK   22  A    between atoms: _49  and  _51
REMARK   23  A    between atoms: _51  and  _52
REMARK   24  A    between atoms: _51  and  _54
REMARK   25  A    between atoms: _54  and  _55
REMARK   26  A    between atoms: _58  and  _60
REMARK   27  A    between atoms: _60  and  _61
REMARK   28  A    between atoms: _60  and  _63
REMARK   29  A    between atoms: _63  and  _64
REMARK   30  A    between atoms: _69  and  _71
REMARK   31  A    between atoms: _71  and  _72
REMARK   32  A    between atoms: _71  and  _74
REMARK   33  A    between atoms: _74  and  _75
REMARK   34  A    between atoms: _75  and  _76
REMARK   35  A    between atoms: _79  and  _81
REMARK   36  A    between atoms: _81  and  _82
REMARK   37  A    between atoms: _81  and  _84
REMARK   38  A    between atoms: _84  and  _85
REMARK   39  A    between atoms: _88  and  _90
REMARK   40  A    between atoms: _90  and  _91
REMARK   41  A    between atoms: _93  and  _95
REMARK   42  A    between atoms: _95  and  _96
REMARK   43  A    between atoms: _95  and  _98
REMARK   44  A    between atoms: _98  and  _99
REMARK   45  A    between atoms: _99  and  _100
REMARK   46  A    between atoms: _103  and  _105
REMARK   47  A    between atoms: _105  and  _106
REMARK   48  A    between atoms: _105  and  _108
REMARK   49  A    between atoms: _108  and  _109
REMARK   50  A    between atoms: _109  and  _110
REMARK   51  A    between atoms: _110  and  _111
REMARK   52  A    between atoms: _120  and  _122
REMARK   53  A    between atoms: _122  and  _123
REMARK   54  A    between atoms: _122  and  _125
REMARK   55  A    between atoms: _125  and  _126
REMARK   56  A    between atoms: _126  and  _127
REMARK   57  A    between atoms: _132  and  _134
REMARK   58  A    between atoms: _134  and  _135
REMARK   59  A    between atoms: _134  and  _137
REMARK   60  A    between atoms: _137  and  _138
REMARK   61  A    between atoms: _141  and  _143
REMARK   62  A    between atoms: _143  and  _144
REMARK   63  A    between atoms: _143  and  _146
REMARK   64  A    between atoms: _149  and  _151
REMARK   65  A    between atoms: _151  and  _152
REMARK   66  A    between atoms: _151  and  _154
REMARK   67  A    between atoms: _154  and  _155
REMARK   68  A    between atoms: _158  and  _160
REMARK   69  A    between atoms: _160  and  _161
REMARK   70  A    between atoms: _160  and  _163
REMARK   71  A    between atoms: _163  and  _164
REMARK   72  A    between atoms: _164  and  _165
REMARK   73  A    between atoms: _170  and  _172
REMARK   74  A    between atoms: _172  and  _173
REMARK   75  A    between atoms: _172  and  _175
REMARK   76  A    between atoms: _175  and  _176
REMARK   77  A    between atoms: _181  and  _182
REMARK   78  A    between atoms: _184  and  _186
REMARK   79  A    between atoms: _186  and  _187
REMARK   80  A    between atoms: _186  and  _189
REMARK   81  A    between atoms: _189  and  _190
REMARK   82  A    between atoms: _192  and  _194
REMARK   83  A    between atoms: _194  and  _195
REMARK   84  A    between atoms: _194  and  _197
REMARK   85  A    between atoms: _197  and  _198
REMARK   86  A    between atoms: _208  and  _210
REMARK   87  A    between atoms: _210  and  _211
REMARK   88  A    between atoms: _210  and  _213
REMARK   89  A    between atoms: _213  and  _214
REMARK   90  A    between atoms: _214  and  _215
REMARK   91  A    between atoms: _217  and  _219
REMARK   92  A    between atoms: _219  and  _220
REMARK   93  A    between atoms: _222  and  _224
REMARK   94  A    between atoms: _224  and  _225
REMARK   95  A    between atoms: _224  and  _227
REMARK   96  A    between atoms: _227  and  _228
REMARK   97  A    between atoms: _231  and  _233
REMARK   98  A    between atoms: _233  and  _234
REMARK   99  A    between atoms: _233  and  _236
REMARK  100  A    between atoms: _236  and  _237
REMARK  101  A    between atoms: _237  and  _238
REMARK  102  A    between atoms: _240  and  _242
REMARK  103  A    between atoms: _242  and  _243
REMARK  104  A    between atoms: _242  and  _245
REMARK  105  A    between atoms: _248  and  _250
REMARK  106  A    between atoms: _250  and  _251
REMARK  107  A    between atoms: _250  and  _253
REMARK  108  A    between atoms: _253  and  _254
REMARK  109  A    between atoms: _260  and  _262
REMARK  110  A    between atoms: _262  and  _263
REMARK  111  A    between atoms: _266  and  _268
REMARK  112  A    between atoms: _268  and  _269
REMARK  113  A    between atoms: _268  and  _271
REMARK  114  A    between atoms: _271  and  _272
REMARK  115  A    between atoms: _272  and  _273
REMARK  116  A    between atoms: _275  and  _277
REMARK  117  A    between atoms: _277  and  _278
REMARK  118  A    between atoms: _280  and  _282
REMARK  119  A    between atoms: _282  and  _283
REMARK  120  A    between atoms: _282  and  _285
REMARK  121  A    between atoms: _285  and  _286
REMARK  122  A    between atoms: _296  and  _298
REMARK  123  A    between atoms: _298  and  _299
REMARK  124  A    between atoms: _298  and  _301
REMARK  125  A    between atoms: _301  and  _302
REMARK  126  A    between atoms: _302  and  _303
REMARK  127  A    between atoms: _303  and  _304
REMARK  128  A    between atoms: _313  and  _315
REMARK  129  A    between atoms: _315  and  _316
REMARK  130  A    between atoms: _315  and  _318
REMARK  131  A    between atoms: _318  and  _319
REMARK  132  A    between atoms: _321  and  _323
REMARK  133  A    between atoms: _323  and  _324
REMARK  134  A    between atoms: _323  and  _326
REMARK  135  A    between atoms: _326  and  _327
REMARK  136  A    between atoms: _330  and  _332
REMARK  137  A    between atoms: _332  and  _333
REMARK  138  A    between atoms: _332  and  _335
REMARK  139  A    between atoms: _335  and  _336
REMARK  140  A    between atoms: _341  and  _342
REMARK  141  A    between atoms: _344  and  _346
REMARK  142  A    between atoms: _346  and  _347
REMARK  143  A    between atoms: _346  and  _349
REMARK  144  A    between atoms: _349  and  _350
REMARK  145  A    between atoms: _356  and  _358
REMARK  146  A    between atoms: _358  and  _359
REMARK  147  A    between atoms: _362  and  _364
REMARK  148  A    between atoms: _364  and  _365
REMARK  149  A    between atoms: _364  and  _367
REMARK  150  A    between atoms: _367  and  _368
REMARK  151  A    between atoms: _371  and  _373
REMARK  152  A    between atoms: _373  and  _374
REMARK  153  A    between atoms: _373  and  _376
REMARK  154  A    between atoms: _376  and  _377
REMARK  155  A    between atoms: _377  and  _378
REMARK  156  A    between atoms: _380  and  _382
REMARK  157  A    between atoms: _382  and  _383
REMARK  158  A    between atoms: _382  and  _385
REMARK  159  A    between atoms: _385  and  _386
REMARK  160  A    between atoms: _386  and  _387
REMARK  161  A    between atoms: _392  and  _394
REMARK  162  A    between atoms: _394  and  _395
REMARK  163  A    between atoms: _394  and  _397
REMARK  164  A    between atoms: _399  and  _401
REMARK  165  A    between atoms: _401  and  _402
REMARK  166  A    between atoms: _401  and  _404
REMARK  167  A    between atoms: _404  and  _405
REMARK  168  A    between atoms: _405  and  _406
REMARK  169  A    between atoms: _408  and  _410
REMARK  170  A    between atoms: _410  and  _411
REMARK  171  A    between atoms: _410  and  _413
REMARK  172  A    between atoms: _413  and  _414
REMARK  173  A    between atoms: _417  and  _419
REMARK  174  A    between atoms: _419  and  _420
REMARK  175  A    between atoms: _423  and  _425
REMARK  176  A    between atoms: _425  and  _426
REMARK  177  A    between atoms: _425  and  _428
REMARK  178  A    between atoms: _428  and  _429
REMARK  179  A    between atoms: _432  and  _434
REMARK  180  A    between atoms: _434  and  _435
REMARK  181  A    between atoms: _434  and  _437
REMARK  182  A    between atoms: _437  and  _438
REMARK  183  A    between atoms: _443  and  _445
REMARK  184  A    between atoms: _445  and  _446
REMARK  185  A    between atoms: _445  and  _448
REMARK  186  A    between atoms: _448  and  _449
REMARK  187  A    between atoms: _455  and  _457
REMARK  188  A    between atoms: _457  and  _458
REMARK  189  A    between atoms: _457  and  _460
REMARK  190  A    between atoms: _460  and  _461
REMARK  191  A    between atoms: _464  and  _466
REMARK  192  A    between atoms: _466  and  _467
REMARK  193  A    between atoms: _466  and  _469
REMARK  194  A    between atoms: _469  and  _470
REMARK  195  A    between atoms: _476  and  _478
REMARK  196  A    between atoms: _478  and  _479
REMARK  197  A    between atoms: _478  and  _481
REMARK  198  A    between atoms: _481  and  _482
REMARK  199  A    between atoms: _485  and  _487
REMARK  200  A    between atoms: _487  and  _488
REMARK  201  A    between atoms: _487  and  _490
REMARK  202  A    between atoms: _490  and  _491
REMARK  203  A    between atoms: _494  and  _496
REMARK  204  A    between atoms: _496  and  _497
REMARK  205  A    between atoms: _496  and  _499
REMARK  206  A    between atoms: _502  and  _504
REMARK  207  A    between atoms: _504  and  _505
REMARK  208  A    between atoms: _504  and  _507
REMARK  209  A    between atoms: _507  and  _508
REMARK  210  A    between atoms: _511  and  _513
REMARK  211  A    between atoms: _513  and  _514
REMARK  212  A    between atoms: _513  and  _516
REMARK  213  A    between atoms: _516  and  _517
REMARK  214  A    between atoms: _524  and  _525
REMARK  215  A    between atoms: _530  and  _532
REMARK  216  A    between atoms: _532  and  _533
REMARK  217  A    between atoms: _532  and  _535
REMARK  218  A    between atoms: _535  and  _536
REMARK  219  A    between atoms: _536  and  _537
REMARK  220  A    between atoms: _539  and  _541
REMARK  221  A    between atoms: _541  and  _542
REMARK  222  A    between atoms: _541  and  _544
REMARK  223  A    between atoms: _544  and  _545
REMARK  224  A    between atoms: _545  and  _546
REMARK  225  A    between atoms: _548  and  _550
REMARK  226  A    between atoms: _550  and  _551
REMARK  227  A    between atoms: _554  and  _556
REMARK  228  A    between atoms: _556  and  _557
REMARK  229  A    between atoms: _556  and  _559
REMARK  230  A    between atoms: _559  and  _560
REMARK  231  A    between atoms: _560  and  _561
REMARK  232  A    between atoms: _564  and  _566
REMARK  233  A    between atoms: _566  and  _567
REMARK  234  A    between atoms: _566  and  _569
REMARK  235  A    between atoms: _569  and  _570
REMARK  236  A    between atoms: _573  and  _575
REMARK  237  A    between atoms: _575  and  _576
REMARK  238  A    between atoms: _575  and  _578
REMARK  239  A    between atoms: _578  and  _579
REMARK  240  A    between atoms: _582  and  _584
REMARK  241  A    between atoms: _584  and  _585
REMARK  242  A    between atoms: _584  and  _587
REMARK  243  A    between atoms: _587  and  _588
REMARK  244  A    between atoms: _590  and  _592
REMARK  245  A    between atoms: _592  and  _593
REMARK  246  A    between atoms: _592  and  _595
REMARK  247  A    between atoms: _595  and  _596
REMARK  248  A    between atoms: _596  and  _597
REMARK  249  A    between atoms: _602  and  _604
REMARK  250  A    between atoms: _604  and  _605
REMARK  251  A    between atoms: _604  and  _607
REMARK  252  A    between atoms: _610  and  _612
REMARK  253  A    between atoms: _612  and  _613
REMARK  254  A    between atoms: _612  and  _615
REMARK  255  A    between atoms: _615  and  _616
REMARK                            x       y       z     vdW  Elec       q    Type
REMARK                         _______ _______ _______ _____ _____    ______ ____
ROOT
ATOM      1  O   HOH     1      25.009  14.930   5.148  0.00  0.00    +0.000 OA
ENDROOT
TORSDOF 0
REMARK  Name = ../refined-set-2016/3b67/3b67_pocket.pdb
REMARK  255 active torsions:
REMARK  status: ('A' for Active; 'I' for Inactive)
REMARK    1  A    between atoms: _1  and  _3
REMARK    2  A    between atoms: _3  and  _4
REMARK    3  A    between atoms: _3  and  _6
REMARK    4  A    between atoms: _9  and  _11
REMARK    5  A    between atoms: _11  and  _12
REMARK    6  A    between atoms: _15  and  _17
REMARK    7  A    between atoms: _17  and  _18
REMARK    8  A    between atoms: _17  and  _20
REMARK    9  A    between atoms: _20  and  _21
REMARK   10  A    between atoms: _24  and  _26
REMARK   11  A    between atoms: _26  and  _27
REMARK   12  A    between atoms: _26  and  _29
REMARK   13  A    between atoms: _29  and  _30
REMARK   14  A    between atoms: _33  and  _35
REMARK   15  A    between atoms: _35  and  _36
REMARK   16  A    between atoms: _35  and  _38
REMARK   17  A    between atoms: _38  and  _39
REMARK   18  A    between atoms: _41  and  _43
REMARK   19  A    between atoms: _43  and  _44
REMARK   20  A    between atoms: _43  and  _46
REMARK   21  A    between atoms: _46  and  _47
REMARK   22  A    between atoms: _49  and  _51
REMARK   23  A    between atoms: _51  and  _52
REMARK   24  A    between atoms: _51  and  _54
REMARK   25  A    between atoms: _54  and  _55
REMARK   26  A    between atoms: _58  and  _60
REMARK   27  A    between atoms: _60  and  _61
REMARK   28  A    between atoms: _60  and  _63
REMARK   29  A    between atoms: _63  and  _64
REMARK   30  A    between atoms: _69  and  _71
REMARK   31  A    between atoms: _71  and  _72
REMARK   32  A    between atoms: _71  and  _74
REMARK   33  A    between atoms: _74  and  _75
REMARK   34  A    between atoms: _75  and  _76
REMARK   35  A    between atoms: _79  and  _81
REMARK   36  A    between atoms: _81  and  _82
REMARK   37  A    between atoms: _81  and  _84
REMARK   38  A    between atoms: _84  and  _85
REMARK   39  A    between atoms: _88  and  _90
REMARK   40  A    between atoms: _90  and  _91
REMARK   41  A    between atoms: _93  and  _95
REMARK   42  A    between atoms: _95  and  _96
REMARK   43  A    between atoms: _95  and  _98
REMARK   44  A    between atoms: _98  and  _99
REMARK   45  A    between atoms: _99  and  _100
REMARK   46  A    between atoms: _103  and  _105
REMARK   47  A    between atoms: _105  and  _106
REMARK   48  A    between atoms: _105  and  _108
REMARK   49  A    between atoms: _108  and  _109
REMARK   50  A    between atoms: _109  and  _110
REMARK   51  A    between atoms: _110  and  _111
REMARK   52  A    between atoms: _120  and  _122
REMARK   53  A    between atoms: _122  and  _123
REMARK   54  A    between atoms: _122  and  _125
REMARK   55  A    between atoms: _125  and  _126
REMARK   56  A    between atoms: _126  and  _127
REMARK   57  A    between atoms: _132  and  _134
REMARK   58  A    between atoms: _134  and  _135
REMARK   59  A    between atoms: _134  and  _137
REMARK   60  A    between atoms: _137  and  _138
REMARK   61  A    between atoms: _141  and  _143
REMARK   62  A    between atoms: _143  and  _144
REMARK   63  A    between atoms: _143  and  _146
REMARK   64  A    between atoms: _149  and  _151
REMARK   65  A    between atoms: _151  and  _152
REMARK   66  A    between atoms: _151  and  _154
REMARK   67  A    between atoms: _154  and  _155
REMARK   68  A    between atoms: _158  and  _160
REMARK   69  A    between atoms: _160  and  _161
REMARK   70  A    between atoms: _160  and  _163
REMARK   71  A    between atoms: _163  and  _164
REMARK   72  A    between atoms: _164  and  _165
REMARK   73  A    between atoms: _170  and  _172
REMARK   74  A    between atoms: _172  and  _173
REMARK   75  A    between atoms: _172  and  _175
REMARK   76  A    between atoms: _175  and  _176
REMARK   77  A    between atoms: _181  and  _182
REMARK   78  A    between atoms: _184  and  _186
REMARK   79  A    between atoms: _186  and  _187
REMARK   80  A    between atoms: _186  and  _189
REMARK   81  A    between atoms: _189  and  _190
REMARK   82  A    between atoms: _192  and  _194
REMARK   83  A    between atoms: _194  and  _195
REMARK   84  A    between atoms: _194  and  _197
REMARK   85  A    between atoms: _197  and  _198
REMARK   86  A    between atoms: _208  and  _210
REMARK   87  A    between atoms: _210  and  _211
REMARK   88  A    between atoms: _210  and  _213
REMARK   89  A    between atoms: _213  and  _214
REMARK   90  A    between atoms: _214  and  _215
REMARK   91  A    between atoms: _217  and  _219
REMARK   92  A    between atoms: _219  and  _220
REMARK   93  A    between atoms: _222  and  _224
REMARK   94  A    between atoms: _224  and  _225
REMARK   95  A    between atoms: _224  and  _227
REMARK   96  A    between atoms: _227  and  _228
REMARK   97  A    between atoms: _231  and  _233
REMARK   98  A    between atoms: _233  and  _234
REMARK   99  A    between atoms: _233  and  _236
REMARK  100  A    between atoms: _236  and  _237
REMARK  101  A    between atoms: _237  and  _238
REMARK  102  A    between atoms: _240  and  _242
REMARK  103  A    between atoms: _242  and  _243
REMARK  104  A    between atoms: _242  and  _245
REMARK  105  A    between atoms: _248  and  _250
REMARK  106  A    between atoms: _250  and  _251
REMARK  107  A    between atoms: _250  and  _253
REMARK  108  A    between atoms: _253  and  _254
REMARK  109  A    between atoms: _260  and  _262
REMARK  110  A    between atoms: _262  and  _263
REMARK  111  A    between atoms: _266  and  _268
REMARK  112  A    between atoms: _268  and  _269
REMARK  113  A    between atoms: _268  and  _271
REMARK  114  A    between atoms: _271  and  _272
REMARK  115  A    between atoms: _272  and  _273
REMARK  116  A    between atoms: _275  and  _277
REMARK  117  A    between atoms: _277  and  _278
REMARK  118  A    between atoms: _280  and  _282
REMARK  119  A    between atoms: _282  and  _283
REMARK  120  A    between atoms: _282  and  _285
REMARK  121  A    between atoms: _285  and  _286
REMARK  122  A    between atoms: _296  and  _298
REMARK  123  A    between atoms: _298  and  _299
REMARK  124  A    between atoms: _298  and  _301
REMARK  125  A    between atoms: _301  and  _302
REMARK  126  A    between atoms: _302  and  _303
REMARK  127  A    between atoms: _303  and  _304
REMARK  128  A    between atoms: _313  and  _315
REMARK  129  A    between atoms: _315  and  _316
REMARK  130  A    between atoms: _315  and  _318
REMARK  131  A    between atoms: _318  and  _319
REMARK  132  A    between atoms: _321  and  _323
REMARK  133  A    between atoms: _323  and  _324
REMARK  134  A    between atoms: _323  and  _326
REMARK  135  A    between atoms: _326  and  _327
REMARK  136  A    between atoms: _330  and  _332
REMARK  137  A    between atoms: _332  and  _333
REMARK  138  A    between atoms: _332  and  _335
REMARK  139  A    between atoms: _335  and  _336
REMARK  140  A    between atoms: _341  and  _342
REMARK  141  A    between atoms: _344  and  _346
REMARK  142  A    between atoms: _346  and  _347
REMARK  143  A    between atoms: _346  and  _349
REMARK  144  A    between atoms: _349  and  _350
REMARK  145  A    between atoms: _356  and  _358
REMARK  146  A    between atoms: _358  and  _359
REMARK  147  A    between atoms: _362  and  _364
REMARK  148  A    between atoms: _364  and  _365
REMARK  149  A    between atoms: _364  and  _367
REMARK  150  A    between atoms: _367  and  _368
REMARK  151  A    between atoms: _371  and  _373
REMARK  152  A    between atoms: _373  and  _374
REMARK  153  A    between atoms: _373  and  _376
REMARK  154  A    between atoms: _376  and  _377
REMARK  155  A    between atoms: _377  and  _378
REMARK  156  A    between atoms: _380  and  _382
REMARK  157  A    between atoms: _382  and  _383
REMARK  158  A    between atoms: _382  and  _385
REMARK  159  A    between atoms: _385  and  _386
REMARK  160  A    between atoms: _386  and  _387
REMARK  161  A    between atoms: _392  and  _394
REMARK  162  A    between atoms: _394  and  _395
REMARK  163  A    between atoms: _394  and  _397
REMARK  164  A    between atoms: _399  and  _401
REMARK  165  A    between atoms: _401  and  _402
REMARK  166  A    between atoms: _401  and  _404
REMARK  167  A    between atoms: _404  and  _405
REMARK  168  A    between atoms: _405  and  _406
REMARK  169  A    between atoms: _408  and  _410
REMARK  170  A    between atoms: _410  and  _411
REMARK  171  A    between atoms: _410  and  _413
REMARK  172  A    between atoms: _413  and  _414
REMARK  173  A    between atoms: _417  and  _419
REMARK  174  A    between atoms: _419  and  _420
REMARK  175  A    between atoms: _423  and  _425
REMARK  176  A    between atoms: _425  and  _426
REMARK  177  A    between atoms: _425  and  _428
REMARK  178  A    between atoms: _428  and  _429
REMARK  179  A    between atoms: _432  and  _434
REMARK  180  A    between atoms: _434  and  _435
REMARK  181  A    between atoms: _434  and  _437
REMARK  182  A    between atoms: _437  and  _438
REMARK  183  A    between atoms: _443  and  _445
REMARK  184  A    between atoms: _445  and  _446
REMARK  185  A    between atoms: _445  and  _448
REMARK  186  A    between atoms: _448  and  _449
REMARK  187  A    between atoms: _455  and  _457
REMARK  188  A    between atoms: _457  and  _458
REMARK  189  A    between atoms: _457  and  _460
REMARK  190  A    between atoms: _460  and  _461
REMARK  191  A    between atoms: _464  and  _466
REMARK  192  A    between atoms: _466  and  _467
REMARK  193  A    between atoms: _466  and  _469
REMARK  194  A    between atoms: _469  and  _470
REMARK  195  A    between atoms: _476  and  _478
REMARK  196  A    between atoms: _478  and  _479
REMARK  197  A    between atoms: _478  and  _481
REMARK  198  A    between atoms: _481  and  _482
REMARK  199  A    between atoms: _485  and  _487
REMARK  200  A    between atoms: _487  and  _488
REMARK  201  A    between atoms: _487  and  _490
REMARK  202  A    between atoms: _490  and  _491
REMARK  203  A    between atoms: _494  and  _496
REMARK  204  A    between atoms: _496  and  _497
REMARK  205  A    between atoms: _496  and  _499
REMARK  206  A    between atoms: _502  and  _504
REMARK  207  A    between atoms: _504  and  _505
REMARK  208  A    between atoms: _504  and  _507
REMARK  209  A    between atoms: _507  and  _508
REMARK  210  A    between atoms: _511  and  _513
REMARK  211  A    between atoms: _513  and  _514
REMARK  212  A    between atoms: _513  and  _516
REMARK  213  A    between atoms: _516  and  _517
REMARK  214  A    between atoms: _524  and  _525
REMARK  215  A    between atoms: _530  and  _532
REMARK  216  A    between atoms: _532  and  _533
REMARK  217  A    between atoms: _532  and  _535
REMARK  218  A    between atoms: _535  and  _536
REMARK  219  A    between atoms: _536  and  _537
REMARK  220  A    between atoms: _539  and  _541
REMARK  221  A    between atoms: _541  and  _542
REMARK  222  A    between atoms: _541  and  _544
REMARK  223  A    between atoms: _544  and  _545
REMARK  224  A    between atoms: _545  and  _546
REMARK  225  A    between atoms: _548  and  _550
REMARK  226  A    between atoms: _550  and  _551
REMARK  227  A    between atoms: _554  and  _556
REMARK  228  A    between atoms: _556  and  _557
REMARK  229  A    between atoms: _556  and  _559
REMARK  230  A    between atoms: _559  and  _560
REMARK  231  A    between atoms: _560  and  _561
REMARK  232  A    between atoms: _564  and  _566
REMARK  233  A    between atoms: _566  and  _567
REMARK  234  A    between atoms: _566  and  _569
REMARK  235  A    between atoms: _569  and  _570
REMARK  236  A    between atoms: _573  and  _575
REMARK  237  A    between atoms: _575  and  _576
REMARK  238  A    between atoms: _575  and  _578
REMARK  239  A    between atoms: _578  and  _579
REMARK  240  A    between atoms: _582  and  _584
REMARK  241  A    between atoms: _584  and  _585
REMARK  242  A    between atoms: _584  and  _587
REMARK  243  A    between atoms: _587  and  _588
REMARK  244  A    between atoms: _590  and  _592
REMARK  245  A    between atoms: _592  and  _593
REMARK  246  A    between atoms: _592  and  _595
REMARK  247  A    between atoms: _595  and  _596
REMARK  248  A    between atoms: _596  and  _597
REMARK  249  A    between atoms: _602  and  _604
REMARK  250  A    between atoms: _604  and  _605
REMARK  251  A    between atoms: _604  and  _607
REMARK  252  A    between atoms: _610  and  _612
REMARK  253  A    between atoms: _612  and  _613
REMARK  254  A    between atoms: _612  and  _615
REMARK  255  A    between atoms: _615  and  _616
REMARK                            x       y       z     vdW  Elec       q    Type
REMARK                         _______ _______ _______ _____ _____    ______ ____
ROOT
ATOM      1  O   HOH     1      20.835  13.990   5.516  0.00  0.00    +0.000 OA
ENDROOT
TORSDOF 0
REMARK  Name = ../refined-set-2016/3b67/3b67_pocket.pdb
REMARK  255 active torsions:
REMARK  status: ('A' for Active; 'I' for Inactive)
REMARK    1  A    between atoms: _1  and  _3
REMARK    2  A    between atoms: _3  and  _4
REMARK    3  A    between atoms: _3  and  _6
REMARK    4  A    between atoms: _9  and  _11
REMARK    5  A    between atoms: _11  and  _12
REMARK    6  A    between atoms: _15  and  _17
REMARK    7  A    between atoms: _17  and  _18
REMARK    8  A    between atoms: _17  and  _20
REMARK    9  A    between atoms: _20  and  _21
REMARK   10  A    between atoms: _24  and  _26
REMARK   11  A    between atoms: _26  and  _27
REMARK   12  A    between atoms: _26  and  _29
REMARK   13  A    between atoms: _29  and  _30
REMARK   14  A    between atoms: _33  and  _35
REMARK   15  A    between atoms: _35  and  _36
REMARK   16  A    between atoms: _35  and  _38
REMARK   17  A    between atoms: _38  and  _39
REMARK   18  A    between atoms: _41  and  _43
REMARK   19  A    between atoms: _43  and  _44
REMARK   20  A    between atoms: _43  and  _46
REMARK   21  A    between atoms: _46  and  _47
REMARK   22  A    between atoms: _49  and  _51
REMARK   23  A    between atoms: _51  and  _52
REMARK   24  A    between atoms: _51  and  _54
REMARK   25  A    between atoms: _54  and  _55
REMARK   26  A    between atoms: _58  and  _60
REMARK   27  A    between atoms: _60  and  _61
REMARK   28  A    between atoms: _60  and  _63
REMARK   29  A    between atoms: _63  and  _64
REMARK   30  A    between atoms: _69  and  _71
REMARK   31  A    between atoms: _71  and  _72
REMARK   32  A    between atoms: _71  and  _74
REMARK   33  A    between atoms: _74  and  _75
REMARK   34  A    between atoms: _75  and  _76
REMARK   35  A    between atoms: _79  and  _81
REMARK   36  A    between atoms: _81  and  _82
REMARK   37  A    between atoms: _81  and  _84
REMARK   38  A    between atoms: _84  and  _85
REMARK   39  A    between atoms: _88  and  _90
REMARK   40  A    between atoms: _90  and  _91
REMARK   41  A    between atoms: _93  and  _95
REMARK   42  A    between atoms: _95  and  _96
REMARK   43  A    between atoms: _95  and  _98
REMARK   44  A    between atoms: _98  and  _99
REMARK   45  A    between atoms: _99  and  _100
REMARK   46  A    between atoms: _103  and  _105
REMARK   47  A    between atoms: _105  and  _106
REMARK   48  A    between atoms: _105  and  _108
REMARK   49  A    between atoms: _108  and  _109
REMARK   50  A    between atoms: _109  and  _110
REMARK   51  A    between atoms: _110  and  _111
REMARK   52  A    between atoms: _120  and  _122
REMARK   53  A    between atoms: _122  and  _123
REMARK   54  A    between atoms: _122  and  _125
REMARK   55  A    between atoms: _125  and  _126
REMARK   56  A    between atoms: _126  and  _127
REMARK   57  A    between atoms: _132  and  _134
REMARK   58  A    between atoms: _134  and  _135
REMARK   59  A    between atoms: _134  and  _137
REMARK   60  A    between atoms: _137  and  _138
REMARK   61  A    between atoms: _141  and  _143
REMARK   62  A    between atoms: _143  and  _144
REMARK   63  A    between atoms: _143  and  _146
REMARK   64  A    between atoms: _149  and  _151
REMARK   65  A    between atoms: _151  and  _152
REMARK   66  A    between atoms: _151  and  _154
REMARK   67  A    between atoms: _154  and  _155
REMARK   68  A    between atoms: _158  and  _160
REMARK   69  A    between atoms: _160  and  _161
REMARK   70  A    between atoms: _160  and  _163
REMARK   71  A    between atoms: _163  and  _164
REMARK   72  A    between atoms: _164  and  _165
REMARK   73  A    between atoms: _170  and  _172
REMARK   74  A    between atoms: _172  and  _173
REMARK   75  A    between atoms: _172  and  _175
REMARK   76  A    between atoms: _175  and  _176
REMARK   77  A    between atoms: _181  and  _182
REMARK   78  A    between atoms: _184  and  _186
REMARK   79  A    between atoms: _186  and  _187
REMARK   80  A    between atoms: _186  and  _189
REMARK   81  A    between atoms: _189  and  _190
REMARK   82  A    between atoms: _192  and  _194
REMARK   83  A    between atoms: _194  and  _195
REMARK   84  A    between atoms: _194  and  _197
REMARK   85  A    between atoms: _197  and  _198
REMARK   86  A    between atoms: _208  and  _210
REMARK   87  A    between atoms: _210  and  _211
REMARK   88  A    between atoms: _210  and  _213
REMARK   89  A    between atoms: _213  and  _214
REMARK   90  A    between atoms: _214  and  _215
REMARK   91  A    between atoms: _217  and  _219
REMARK   92  A    between atoms: _219  and  _220
REMARK   93  A    between atoms: _222  and  _224
REMARK   94  A    between atoms: _224  and  _225
REMARK   95  A    between atoms: _224  and  _227
REMARK   96  A    between atoms: _227  and  _228
REMARK   97  A    between atoms: _231  and  _233
REMARK   98  A    between atoms: _233  and  _234
REMARK   99  A    between atoms: _233  and  _236
REMARK  100  A    between atoms: _236  and  _237
REMARK  101  A    between atoms: _237  and  _238
REMARK  102  A    between atoms: _240  and  _242
REMARK  103  A    between atoms: _242  and  _243
REMARK  104  A    between atoms: _242  and  _245
REMARK  105  A    between atoms: _248  and  _250
REMARK  106  A    between atoms: _250  and  _251
REMARK  107  A    between atoms: _250  and  _253
REMARK  108  A    between atoms: _253  and  _254
REMARK  109  A    between atoms: _260  and  _262
REMARK  110  A    between atoms: _262  and  _263
REMARK  111  A    between atoms: _266  and  _268
REMARK  112  A    between atoms: _268  and  _269
REMARK  113  A    between atoms: _268  and  _271
REMARK  114  A    between atoms: _271  and  _272
REMARK  115  A    between atoms: _272  and  _273
REMARK  116  A    between atoms: _275  and  _277
REMARK  117  A    between atoms: _277  and  _278
REMARK  118  A    between atoms: _280  and  _282
REMARK  119  A    between atoms: _282  and  _283
REMARK  120  A    between atoms: _282  and  _285
REMARK  121  A    between atoms: _285  and  _286
REMARK  122  A    between atoms: _296  and  _298
REMARK  123  A    between atoms: _298  and  _299
REMARK  124  A    between atoms: _298  and  _301
REMARK  125  A    between atoms: _301  and  _302
REMARK  126  A    between atoms: _302  and  _303
REMARK  127  A    between atoms: _303  and  _304
REMARK  128  A    between atoms: _313  and  _315
REMARK  129  A    between atoms: _315  and  _316
REMARK  130  A    between atoms: _315  and  _318
REMARK  131  A    between atoms: _318  and  _319
REMARK  132  A    between atoms: _321  and  _323
REMARK  133  A    between atoms: _323  and  _324
REMARK  134  A    between atoms: _323  and  _326
REMARK  135  A    between atoms: _326  and  _327
REMARK  136  A    between atoms: _330  and  _332
REMARK  137  A    between atoms: _332  and  _333
REMARK  138  A    between atoms: _332  and  _335
REMARK  139  A    between atoms: _335  and  _336
REMARK  140  A    between atoms: _341  and  _342
REMARK  141  A    between atoms: _344  and  _346
REMARK  142  A    between atoms: _346  and  _347
REMARK  143  A    between atoms: _346  and  _349
REMARK  144  A    between atoms: _349  and  _350
REMARK  145  A    between atoms: _356  and  _358
REMARK  146  A    between atoms: _358  and  _359
REMARK  147  A    between atoms: _362  and  _364
REMARK  148  A    between atoms: _364  and  _365
REMARK  149  A    between atoms: _364  and  _367
REMARK  150  A    between atoms: _367  and  _368
REMARK  151  A    between atoms: _371  and  _373
REMARK  152  A    between atoms: _373  and  _374
REMARK  153  A    between atoms: _373  and  _376
REMARK  154  A    between atoms: _376  and  _377
REMARK  155  A    between atoms: _377  and  _378
REMARK  156  A    between atoms: _380  and  _382
REMARK  157  A    between atoms: _382  and  _383
REMARK  158  A    between atoms: _382  and  _385
REMARK  159  A    between atoms: _385  and  _386
REMARK  160  A    between atoms: _386  and  _387
REMARK  161  A    between atoms: _392  and  _394
REMARK  162  A    between atoms: _394  and  _395
REMARK  163  A    between atoms: _394  and  _397
REMARK  164  A    between atoms: _399  and  _401
REMARK  165  A    between atoms: _401  and  _402
REMARK  166  A    between atoms: _401  and  _404
REMARK  167  A    between atoms: _404  and  _405
REMARK  168  A    between atoms: _405  and  _406
REMARK  169  A    between atoms: _408  and  _410
REMARK  170  A    between atoms: _410  and  _411
REMARK  171  A    between atoms: _410  and  _413
REMARK  172  A    between atoms: _413  and  _414
REMARK  173  A    between atoms: _417  and  _419
REMARK  174  A    between atoms: _419  and  _420
REMARK  175  A    between atoms: _423  and  _425
REMARK  176  A    between atoms: _425  and  _426
REMARK  177  A    between atoms: _425  and  _428
REMARK  178  A    between atoms: _428  and  _429
REMARK  179  A    between atoms: _432  and  _434
REMARK  180  A    between atoms: _434  and  _435
REMARK  181  A    between atoms: _434  and  _437
REMARK  182  A    between atoms: _437  and  _438
REMARK  183  A    between atoms: _443  and  _445
REMARK  184  A    between atoms: _445  and  _446
REMARK  185  A    between atoms: _445  and  _448
REMARK  186  A    between atoms: _448  and  _449
REMARK  187  A    between atoms: _455  and  _457
REMARK  188  A    between atoms: _457  and  _458
REMARK  189  A    between atoms: _457  and  _460
REMARK  190  A    between atoms: _460  and  _461
REMARK  191  A    between atoms: _464  and  _466
REMARK  192  A    between atoms: _466  and  _467
REMARK  193  A    between atoms: _466  and  _469
REMARK  194  A    between atoms: _469  and  _470
REMARK  195  A    between atoms: _476  and  _478
REMARK  196  A    between atoms: _478  and  _479
REMARK  197  A    between atoms: _478  and  _481
REMARK  198  A    between atoms: _481  and  _482
REMARK  199  A    between atoms: _485  and  _487
REMARK  200  A    between atoms: _487  and  _488
REMARK  201  A    between atoms: _487  and  _490
REMARK  202  A    between atoms: _490  and  _491
REMARK  203  A    between atoms: _494  and  _496
REMARK  204  A    between atoms: _496  and  _497
REMARK  205  A    between atoms: _496  and  _499
REMARK  206  A    between atoms: _502  and  _504
REMARK  207  A    between atoms: _504  and  _505
REMARK  208  A    between atoms: _504  and  _507
REMARK  209  A    between atoms: _507  and  _508
REMARK  210  A    between atoms: _511  and  _513
REMARK  211  A    between atoms: _513  and  _514
REMARK  212  A    between atoms: _513  and  _516
REMARK  213  A    between atoms: _516  and  _517
REMARK  214  A    between atoms: _524  and  _525
REMARK  215  A    between atoms: _530  and  _532
REMARK  216  A    between atoms: _532  and  _533
REMARK  217  A    between atoms: _532  and  _535
REMARK  218  A    between atoms: _535  and  _536
REMARK  219  A    between atoms: _536  and  _537
REMARK  220  A    between atoms: _539  and  _541
REMARK  221  A    between atoms: _541  and  _542
REMARK  222  A    between atoms: _541  and  _544
REMARK  223  A    between atoms: _544  and  _545
REMARK  224  A    between atoms: _545  and  _546
REMARK  225  A    between atoms: _548  and  _550
REMARK  226  A    between atoms: _550  and  _551
REMARK  227  A    between atoms: _554  and  _556
REMARK  228  A    between atoms: _556  and  _557
REMARK  229  A    between atoms: _556  and  _559
REMARK  230  A    between atoms: _559  and  _560
REMARK  231  A    between atoms: _560  and  _561
REMARK  232  A    between atoms: _564  and  _566
REMARK  233  A    between atoms: _566  and  _567
REMARK  234  A    between atoms: _566  and  _569
REMARK  235  A    between atoms: _569  and  _570
REMARK  236  A    between atoms: _573  and  _575
REMARK  237  A    between atoms: _575  and  _576
REMARK  238  A    between atoms: _575  and  _578
REMARK  239  A    between atoms: _578  and  _579
REMARK  240  A    between atoms: _582  and  _584
REMARK  241  A    between atoms: _584  and  _585
REMARK  242  A    between atoms: _584  and  _587
REMARK  243  A    between atoms: _587  and  _588
REMARK  244  A    between atoms: _590  and  _592
REMARK  245  A    between atoms: _592  and  _593
REMARK  246  A    between atoms: _592  and  _595
REMARK  247  A    between atoms: _595  and  _596
REMARK  248  A    between atoms: _596  and  _597
REMARK  249  A    between atoms: _602  and  _604
REMARK  250  A    between atoms: _604  and  _605
REMARK  251  A    between atoms: _604  and  _607
REMARK  252  A    between atoms: _610  and  _612
REMARK  253  A    between atoms: _612  and  _613
REMARK  254  A    between atoms: _612  and  _615
REMARK  255  A    between atoms: _615  and  _616
REMARK                            x       y       z     vdW  Elec       q    Type
REMARK                         _______ _______ _______ _____ _____    ______ ____
ROOT
ATOM      1  O   HOH     1      25.961  12.808   6.431  0.00  0.00    +0.000 OA
ENDROOT
TORSDOF 0
