REMARK  Name = ../refined-set-2016/2xib/2xib_pocket.pdb
REMARK  142 active torsions:
REMARK  status: ('A' for Active; 'I' for Inactive)
REMARK    1  A    between atoms: _1  and  _3
REMARK    2  A    between atoms: _3  and  _4
REMARK    3  A    between atoms: _3  and  _6
REMARK    4  A    between atoms: _6  and  _7
REMARK    5  A    between atoms: _13  and  _15
REMARK    6  A    between atoms: _15  and  _16
REMARK    7  A    between atoms: _15  and  _18
REMARK    8  A    between atoms: _18  and  _19
REMARK    9  A    between atoms: _24  and  _26
REMARK   10  A    between atoms: _26  and  _27
REMARK   11  A    between atoms: _26  and  _29
REMARK   12  A    between atoms: _29  and  _30
REMARK   13  A    between atoms: _35  and  _36
REMARK   14  A    between atoms: _38  and  _40
REMARK   15  A    between atoms: _40  and  _41
REMARK   16  A    between atoms: _44  and  _46
REMARK   17  A    between atoms: _46  and  _47
REMARK   18  A    between atoms: _50  and  _52
REMARK   19  A    between atoms: _52  and  _53
REMARK   20  A    between atoms: _52  and  _55
REMARK   21  A    between atoms: _55  and  _56
REMARK   22  A    between atoms: _56  and  _57
REMARK   23  A    between atoms: _60  and  _62
REMARK   24  A    between atoms: _62  and  _63
REMARK   25  A    between atoms: _62  and  _65
REMARK   26  A    between atoms: _65  and  _66
REMARK   27  A    between atoms: _76  and  _78
REMARK   28  A    between atoms: _78  and  _79
REMARK   29  A    between atoms: _78  and  _81
REMARK   30  A    between atoms: _81  and  _82
REMARK   31  A    between atoms: _85  and  _87
REMARK   32  A    between atoms: _87  and  _88
REMARK   33  A    between atoms: _87  and  _90
REMARK   34  A    between atoms: _90  and  _91
REMARK   35  A    between atoms: _91  and  _92
REMARK   36  A    between atoms: _92  and  _93
REMARK   37  A    between atoms: _93  and  _94
REMARK   38  A    between atoms: _98  and  _100
REMARK   39  A    between atoms: _100  and  _101
REMARK   40  A    between atoms: _100  and  _103
REMARK   41  A    between atoms: _103  and  _104
REMARK   42  A    between atoms: _109  and  _111
REMARK   43  A    between atoms: _111  and  _112
REMARK   44  A    between atoms: _111  and  _114
REMARK   45  A    between atoms: _114  and  _115
REMARK   46  A    between atoms: _120  and  _122
REMARK   47  A    between atoms: _122  and  _123
REMARK   48  A    between atoms: _122  and  _125
REMARK   49  A    between atoms: _125  and  _126
REMARK   50  A    between atoms: _126  and  _127
REMARK   51  A    between atoms: _130  and  _132
REMARK   52  A    between atoms: _132  and  _133
REMARK   53  A    between atoms: _132  and  _135
REMARK   54  A    between atoms: _135  and  _136
REMARK   55  A    between atoms: _141  and  _142
REMARK   56  A    between atoms: _144  and  _146
REMARK   57  A    between atoms: _146  and  _147
REMARK   58  A    between atoms: _146  and  _149
REMARK   59  A    between atoms: _149  and  _150
REMARK   60  A    between atoms: _152  and  _154
REMARK   61  A    between atoms: _154  and  _155
REMARK   62  A    between atoms: _154  and  _157
REMARK   63  A    between atoms: _157  and  _158
REMARK   64  A    between atoms: _158  and  _159
REMARK   65  A    between atoms: _161  and  _163
REMARK   66  A    between atoms: _163  and  _164
REMARK   67  A    between atoms: _163  and  _166
REMARK   68  A    between atoms: _166  and  _167
REMARK   69  A    between atoms: _177  and  _179
REMARK   70  A    between atoms: _179  and  _180
REMARK   71  A    between atoms: _179  and  _182
REMARK   72  A    between atoms: _182  and  _183
REMARK   73  A    between atoms: _193  and  _195
REMARK   74  A    between atoms: _195  and  _196
REMARK   75  A    between atoms: _195  and  _198
REMARK   76  A    between atoms: _198  and  _199
REMARK   77  A    between atoms: _205  and  _207
REMARK   78  A    between atoms: _207  and  _208
REMARK   79  A    between atoms: _207  and  _210
REMARK   80  A    between atoms: _210  and  _211
REMARK   81  A    between atoms: _214  and  _216
REMARK   82  A    between atoms: _216  and  _217
REMARK   83  A    between atoms: _219  and  _221
REMARK   84  A    between atoms: _221  and  _222
REMARK   85  A    between atoms: _221  and  _224
REMARK   86  A    between atoms: _224  and  _225
REMARK   87  A    between atoms: _228  and  _230
REMARK   88  A    between atoms: _230  and  _231
REMARK   89  A    between atoms: _230  and  _233
REMARK   90  A    between atoms: _233  and  _234
REMARK   91  A    between atoms: _244  and  _246
REMARK   92  A    between atoms: _246  and  _247
REMARK   93  A    between atoms: _246  and  _249
REMARK   94  A    between atoms: _249  and  _250
REMARK   95  A    between atoms: _250  and  _251
REMARK   96  A    between atoms: _251  and  _252
REMARK   97  A    between atoms: _261  and  _263
REMARK   98  A    between atoms: _263  and  _264
REMARK   99  A    between atoms: _263  and  _266
REMARK  100  A    between atoms: _266  and  _267
REMARK  101  A    between atoms: _269  and  _271
REMARK  102  A    between atoms: _271  and  _272
REMARK  103  A    between atoms: _271  and  _274
REMARK  104  A    between atoms: _274  and  _275
REMARK  105  A    between atoms: _275  and  _276
REMARK  106  A    between atoms: _279  and  _281
REMARK  107  A    between atoms: _281  and  _282
REMARK  108  A    between atoms: _281  and  _284
REMARK  109  A    between atoms: _284  and  _285
REMARK  110  A    between atoms: _285  and  _286
REMARK  111  A    between atoms: _286  and  _287
REMARK  112  A    between atoms: _296  and  _298
REMARK  113  A    between atoms: _298  and  _299
REMARK  114  A    between atoms: _298  and  _301
REMARK  115  A    between atoms: _303  and  _305
REMARK  116  A    between atoms: _305  and  _306
REMARK  117  A    between atoms: _305  and  _308
REMARK  118  A    between atoms: _308  and  _309
REMARK  119  A    between atoms: _309  and  _310
REMARK  120  A    between atoms: _312  and  _314
REMARK  121  A    between atoms: _314  and  _315
REMARK  122  A    between atoms: _314  and  _317
REMARK  123  A    between atoms: _317  and  _318
REMARK  124  A    between atoms: _321  and  _323
REMARK  125  A    between atoms: _323  and  _324
REMARK  126  A    between atoms: _323  and  _326
REMARK  127  A    between atoms: _326  and  _327
REMARK  128  A    between atoms: _332  and  _334
REMARK  129  A    between atoms: _334  and  _335
REMARK  130  A    between atoms: _334  and  _337
REMARK  131  A    between atoms: _337  and  _338
REMARK  132  A    between atoms: _338  and  _339
REMARK  133  A    between atoms: _344  and  _346
REMARK  134  A    between atoms: _346  and  _347
REMARK  135  A    between atoms: _346  and  _349
REMARK  136  A    between atoms: _349  and  _350
REMARK  137  A    between atoms: _360  and  _362
REMARK  138  A    between atoms: _362  and  _363
REMARK  139  A    between atoms: _365  and  _367
REMARK  140  A    between atoms: _367  and  _368
REMARK  141  A    between atoms: _367  and  _370
REMARK  142  A    between atoms: _370  and  _371
REMARK                            x       y       z     vdW  Elec       q    Type
REMARK                         _______ _______ _______ _____ _____    ______ ____
ROOT
ATOM      1  CB  PHE A   1      22.294   4.613  44.563  0.00  0.00    +0.051 C 
ENDROOT
BRANCH   1   2
ATOM      2  CG  PHE A   1      23.231   3.446  44.753  0.00  0.00    -0.020 A 
ATOM      3  CD2 PHE A   1      23.725   3.132  45.992  0.00  0.00    -0.004 A 
ATOM      4  CE2 PHE A   1      24.576   2.059  46.171  0.00  0.00    -0.000 A 
ATOM      5  CZ  PHE A   1      24.945   1.277  45.065  0.00  0.00    -0.000 A 
ATOM      6  CE1 PHE A   1      24.451   1.591  43.811  0.00  0.00    -0.000 A 
ATOM      7  CD1 PHE A   1      23.599   2.655  43.661  0.00  0.00    -0.004 A 
ENDBRANCH   1   2
BRANCH   1   8
ATOM      8  CA  PHE A   1      21.089   4.621  45.522  0.00  0.00    +0.137 C 
BRANCH   8   9
ATOM      9  N   PHE A   1      19.815   4.788  44.805  0.00  0.00    -0.239 NA
ATOM     10  H   PHE A   1      19.750   5.518  44.067  0.00  0.00    +0.142 HD
ENDBRANCH   8   9
BRANCH   8  11
ATOM     11  C   PHE A   1      21.238   5.827  46.465  0.00  0.00    +0.224 C 
ATOM     12  O   PHE A   1      20.912   6.944  46.069  0.00  0.00    -0.287 OA
ENDBRANCH   8  11
ENDBRANCH   1   8
TORSDOF 4
REMARK  Name = ../refined-set-2016/2xib/2xib_pocket.pdb
REMARK  142 active torsions:
REMARK  status: ('A' for Active; 'I' for Inactive)
REMARK    1  A    between atoms: _1  and  _3
REMARK    2  A    between atoms: _3  and  _4
REMARK    3  A    between atoms: _3  and  _6
REMARK    4  A    between atoms: _6  and  _7
REMARK    5  A    between atoms: _13  and  _15
REMARK    6  A    between atoms: _15  and  _16
REMARK    7  A    between atoms: _15  and  _18
REMARK    8  A    between atoms: _18  and  _19
REMARK    9  A    between atoms: _24  and  _26
REMARK   10  A    between atoms: _26  and  _27
REMARK   11  A    between atoms: _26  and  _29
REMARK   12  A    between atoms: _29  and  _30
REMARK   13  A    between atoms: _35  and  _36
REMARK   14  A    between atoms: _38  and  _40
REMARK   15  A    between atoms: _40  and  _41
REMARK   16  A    between atoms: _44  and  _46
REMARK   17  A    between atoms: _46  and  _47
REMARK   18  A    between atoms: _50  and  _52
REMARK   19  A    between atoms: _52  and  _53
REMARK   20  A    between atoms: _52  and  _55
REMARK   21  A    between atoms: _55  and  _56
REMARK   22  A    between atoms: _56  and  _57
REMARK   23  A    between atoms: _60  and  _62
REMARK   24  A    between atoms: _62  and  _63
REMARK   25  A    between atoms: _62  and  _65
REMARK   26  A    between atoms: _65  and  _66
REMARK   27  A    between atoms: _76  and  _78
REMARK   28  A    between atoms: _78  and  _79
REMARK   29  A    between atoms: _78  and  _81
REMARK   30  A    between atoms: _81  and  _82
REMARK   31  A    between atoms: _85  and  _87
REMARK   32  A    between atoms: _87  and  _88
REMARK   33  A    between atoms: _87  and  _90
REMARK   34  A    between atoms: _90  and  _91
REMARK   35  A    between atoms: _91  and  _92
REMARK   36  A    between atoms: _92  and  _93
REMARK   37  A    between atoms: _93  and  _94
REMARK   38  A    between atoms: _98  and  _100
REMARK   39  A    between atoms: _100  and  _101
REMARK   40  A    between atoms: _100  and  _103
REMARK   41  A    between atoms: _103  and  _104
REMARK   42  A    between atoms: _109  and  _111
REMARK   43  A    between atoms: _111  and  _112
REMARK   44  A    between atoms: _111  and  _114
REMARK   45  A    between atoms: _114  and  _115
REMARK   46  A    between atoms: _120  and  _122
REMARK   47  A    between atoms: _122  and  _123
REMARK   48  A    between atoms: _122  and  _125
REMARK   49  A    between atoms: _125  and  _126
REMARK   50  A    between atoms: _126  and  _127
REMARK   51  A    between atoms: _130  and  _132
REMARK   52  A    between atoms: _132  and  _133
REMARK   53  A    between atoms: _132  and  _135
REMARK   54  A    between atoms: _135  and  _136
REMARK   55  A    between atoms: _141  and  _142
REMARK   56  A    between atoms: _144  and  _146
REMARK   57  A    between atoms: _146  and  _147
REMARK   58  A    between atoms: _146  and  _149
REMARK   59  A    between atoms: _149  and  _150
REMARK   60  A    between atoms: _152  and  _154
REMARK   61  A    between atoms: _154  and  _155
REMARK   62  A    between atoms: _154  and  _157
REMARK   63  A    between atoms: _157  and  _158
REMARK   64  A    between atoms: _158  and  _159
REMARK   65  A    between atoms: _161  and  _163
REMARK   66  A    between atoms: _163  and  _164
REMARK   67  A    between atoms: _163  and  _166
REMARK   68  A    between atoms: _166  and  _167
REMARK   69  A    between atoms: _177  and  _179
REMARK   70  A    between atoms: _179  and  _180
REMARK   71  A    between atoms: _179  and  _182
REMARK   72  A    between atoms: _182  and  _183
REMARK   73  A    between atoms: _193  and  _195
REMARK   74  A    between atoms: _195  and  _196
REMARK   75  A    between atoms: _195  and  _198
REMARK   76  A    between atoms: _198  and  _199
REMARK   77  A    between atoms: _205  and  _207
REMARK   78  A    between atoms: _207  and  _208
REMARK   79  A    between atoms: _207  and  _210
REMARK   80  A    between atoms: _210  and  _211
REMARK   81  A    between atoms: _214  and  _216
REMARK   82  A    between atoms: _216  and  _217
REMARK   83  A    between atoms: _219  and  _221
REMARK   84  A    between atoms: _221  and  _222
REMARK   85  A    between atoms: _221  and  _224
REMARK   86  A    between atoms: _224  and  _225
REMARK   87  A    between atoms: _228  and  _230
REMARK   88  A    between atoms: _230  and  _231
REMARK   89  A    between atoms: _230  and  _233
REMARK   90  A    between atoms: _233  and  _234
REMARK   91  A    between atoms: _244  and  _246
REMARK   92  A    between atoms: _246  and  _247
REMARK   93  A    between atoms: _246  and  _249
REMARK   94  A    between atoms: _249  and  _250
REMARK   95  A    between atoms: _250  and  _251
REMARK   96  A    between atoms: _251  and  _252
REMARK   97  A    between atoms: _261  and  _263
REMARK   98  A    between atoms: _263  and  _264
REMARK   99  A    between atoms: _263  and  _266
REMARK  100  A    between atoms: _266  and  _267
REMARK  101  A    between atoms: _269  and  _271
REMARK  102  A    between atoms: _271  and  _272
REMARK  103  A    between atoms: _271  and  _274
REMARK  104  A    between atoms: _274  and  _275
REMARK  105  A    between atoms: _275  and  _276
REMARK  106  A    between atoms: _279  and  _281
REMARK  107  A    between atoms: _281  and  _282
REMARK  108  A    between atoms: _281  and  _284
REMARK  109  A    between atoms: _284  and  _285
REMARK  110  A    between atoms: _285  and  _286
REMARK  111  A    between atoms: _286  and  _287
REMARK  112  A    between atoms: _296  and  _298
REMARK  113  A    between atoms: _298  and  _299
REMARK  114  A    between atoms: _298  and  _301
REMARK  115  A    between atoms: _303  and  _305
REMARK  116  A    between atoms: _305  and  _306
REMARK  117  A    between atoms: _305  and  _308
REMARK  118  A    between atoms: _308  and  _309
REMARK  119  A    between atoms: _309  and  _310
REMARK  120  A    between atoms: _312  and  _314
REMARK  121  A    between atoms: _314  and  _315
REMARK  122  A    between atoms: _314  and  _317
REMARK  123  A    between atoms: _317  and  _318
REMARK  124  A    between atoms: _321  and  _323
REMARK  125  A    between atoms: _323  and  _324
REMARK  126  A    between atoms: _323  and  _326
REMARK  127  A    between atoms: _326  and  _327
REMARK  128  A    between atoms: _332  and  _334
REMARK  129  A    between atoms: _334  and  _335
REMARK  130  A    between atoms: _334  and  _337
REMARK  131  A    between atoms: _337  and  _338
REMARK  132  A    between atoms: _338  and  _339
REMARK  133  A    between atoms: _344  and  _346
REMARK  134  A    between atoms: _346  and  _347
REMARK  135  A    between atoms: _346  and  _349
REMARK  136  A    between atoms: _349  and  _350
REMARK  137  A    between atoms: _360  and  _362
REMARK  138  A    between atoms: _362  and  _363
REMARK  139  A    between atoms: _365  and  _367
REMARK  140  A    between atoms: _367  and  _368
REMARK  141  A    between atoms: _367  and  _370
REMARK  142  A    between atoms: _370  and  _371
REMARK                            x       y       z     vdW  Elec       q    Type
REMARK                         _______ _______ _______ _____ _____    ______ ____
ROOT
ATOM      1  CB  HIS A   1      26.662   7.940  47.620  0.00  0.00    +0.072 C 
ENDROOT
BRANCH   1   2
ATOM      2  CG  HIS A   1      27.058   6.750  46.811  0.00  0.00    +0.082 A 
ATOM      3  CD2 HIS A   1      28.236   6.098  46.697  0.00  0.00    +0.115 A 
ATOM      4  NE2 HIS A   1      28.044   5.056  45.824  0.00  0.00    -0.221 NA
ATOM      5  CE1 HIS A   1      26.790   5.075  45.414  0.00  0.00    +0.199 A 
ATOM      6  ND1 HIS A   1      26.174   6.094  45.987  0.00  0.00    -0.227 NA
ENDBRANCH   1   2
BRANCH   1   7
ATOM      7  CA  HIS A   1      25.786   7.601  48.832  0.00  0.00    +0.139 C 
BRANCH   7   8
ATOM      8  N   HIS A   1      24.378   7.475  48.464  0.00  0.00    -0.239 NA
ATOM      9  H   HIS A   1      23.980   8.168  47.799  0.00  0.00    +0.142 HD
ENDBRANCH   7   8
BRANCH   7  10
ATOM     10  C   HIS A   1      25.870   8.758  49.831  0.00  0.00    +0.224 C 
ATOM     11  O   HIS A   1      25.852   9.934  49.446  0.00  0.00    -0.287 OA
ENDBRANCH   7  10
ENDBRANCH   1   7
TORSDOF 4
REMARK  Name = ../refined-set-2016/2xib/2xib_pocket.pdb
REMARK  142 active torsions:
REMARK  status: ('A' for Active; 'I' for Inactive)
REMARK    1  A    between atoms: _1  and  _3
REMARK    2  A    between atoms: _3  and  _4
REMARK    3  A    between atoms: _3  and  _6
REMARK    4  A    between atoms: _6  and  _7
REMARK    5  A    between atoms: _13  and  _15
REMARK    6  A    between atoms: _15  and  _16
REMARK    7  A    between atoms: _15  and  _18
REMARK    8  A    between atoms: _18  and  _19
REMARK    9  A    between atoms: _24  and  _26
REMARK   10  A    between atoms: _26  and  _27
REMARK   11  A    between atoms: _26  and  _29
REMARK   12  A    between atoms: _29  and  _30
REMARK   13  A    between atoms: _35  and  _36
REMARK   14  A    between atoms: _38  and  _40
REMARK   15  A    between atoms: _40  and  _41
REMARK   16  A    between atoms: _44  and  _46
REMARK   17  A    between atoms: _46  and  _47
REMARK   18  A    between atoms: _50  and  _52
REMARK   19  A    between atoms: _52  and  _53
REMARK   20  A    between atoms: _52  and  _55
REMARK   21  A    between atoms: _55  and  _56
REMARK   22  A    between atoms: _56  and  _57
REMARK   23  A    between atoms: _60  and  _62
REMARK   24  A    between atoms: _62  and  _63
REMARK   25  A    between atoms: _62  and  _65
REMARK   26  A    between atoms: _65  and  _66
REMARK   27  A    between atoms: _76  and  _78
REMARK   28  A    between atoms: _78  and  _79
REMARK   29  A    between atoms: _78  and  _81
REMARK   30  A    between atoms: _81  and  _82
REMARK   31  A    between atoms: _85  and  _87
REMARK   32  A    between atoms: _87  and  _88
REMARK   33  A    between atoms: _87  and  _90
REMARK   34  A    between atoms: _90  and  _91
REMARK   35  A    between atoms: _91  and  _92
REMARK   36  A    between atoms: _92  and  _93
REMARK   37  A    between atoms: _93  and  _94
REMARK   38  A    between atoms: _98  and  _100
REMARK   39  A    between atoms: _100  and  _101
REMARK   40  A    between atoms: _100  and  _103
REMARK   41  A    between atoms: _103  and  _104
REMARK   42  A    between atoms: _109  and  _111
REMARK   43  A    between atoms: _111  and  _112
REMARK   44  A    between atoms: _111  and  _114
REMARK   45  A    between atoms: _114  and  _115
REMARK   46  A    between atoms: _120  and  _122
REMARK   47  A    between atoms: _122  and  _123
REMARK   48  A    between atoms: _122  and  _125
REMARK   49  A    between atoms: _125  and  _126
REMARK   50  A    between atoms: _126  and  _127
REMARK   51  A    between atoms: _130  and  _132
REMARK   52  A    between atoms: _132  and  _133
REMARK   53  A    between atoms: _132  and  _135
REMARK   54  A    between atoms: _135  and  _136
REMARK   55  A    between atoms: _141  and  _142
REMARK   56  A    between atoms: _144  and  _146
REMARK   57  A    between atoms: _146  and  _147
REMARK   58  A    between atoms: _146  and  _149
REMARK   59  A    between atoms: _149  and  _150
REMARK   60  A    between atoms: _152  and  _154
REMARK   61  A    between atoms: _154  and  _155
REMARK   62  A    between atoms: _154  and  _157
REMARK   63  A    between atoms: _157  and  _158
REMARK   64  A    between atoms: _158  and  _159
REMARK   65  A    between atoms: _161  and  _163
REMARK   66  A    between atoms: _163  and  _164
REMARK   67  A    between atoms: _163  and  _166
REMARK   68  A    between atoms: _166  and  _167
REMARK   69  A    between atoms: _177  and  _179
REMARK   70  A    between atoms: _179  and  _180
REMARK   71  A    between atoms: _179  and  _182
REMARK   72  A    between atoms: _182  and  _183
REMARK   73  A    between atoms: _193  and  _195
REMARK   74  A    between atoms: _195  and  _196
REMARK   75  A    between atoms: _195  and  _198
REMARK   76  A    between atoms: _198  and  _199
REMARK   77  A    between atoms: _205  and  _207
REMARK   78  A    between atoms: _207  and  _208
REMARK   79  A    between atoms: _207  and  _210
REMARK   80  A    between atoms: _210  and  _211
REMARK   81  A    between atoms: _214  and  _216
REMARK   82  A    between atoms: _216  and  _217
REMARK   83  A    between atoms: _219  and  _221
REMARK   84  A    between atoms: _221  and  _222
REMARK   85  A    between atoms: _221  and  _224
REMARK   86  A    between atoms: _224  and  _225
REMARK   87  A    between atoms: _228  and  _230
REMARK   88  A    between atoms: _230  and  _231
REMARK   89  A    between atoms: _230  and  _233
REMARK   90  A    between atoms: _233  and  _234
REMARK   91  A    between atoms: _244  and  _246
REMARK   92  A    between atoms: _246  and  _247
REMARK   93  A    between atoms: _246  and  _249
REMARK   94  A    between atoms: _249  and  _250
REMARK   95  A    between atoms: _250  and  _251
REMARK   96  A    between atoms: _251  and  _252
REMARK   97  A    between atoms: _261  and  _263
REMARK   98  A    between atoms: _263  and  _264
REMARK   99  A    between atoms: _263  and  _266
REMARK  100  A    between atoms: _266  and  _267
REMARK  101  A    between atoms: _269  and  _271
REMARK  102  A    between atoms: _271  and  _272
REMARK  103  A    between atoms: _271  and  _274
REMARK  104  A    between atoms: _274  and  _275
REMARK  105  A    between atoms: _275  and  _276
REMARK  106  A    between atoms: _279  and  _281
REMARK  107  A    between atoms: _281  and  _282
REMARK  108  A    between atoms: _281  and  _284
REMARK  109  A    between atoms: _284  and  _285
REMARK  110  A    between atoms: _285  and  _286
REMARK  111  A    between atoms: _286  and  _287
REMARK  112  A    between atoms: _296  and  _298
REMARK  113  A    between atoms: _298  and  _299
REMARK  114  A    between atoms: _298  and  _301
REMARK  115  A    between atoms: _303  and  _305
REMARK  116  A    between atoms: _305  and  _306
REMARK  117  A    between atoms: _305  and  _308
REMARK  118  A    between atoms: _308  and  _309
REMARK  119  A    between atoms: _309  and  _310
REMARK  120  A    between atoms: _312  and  _314
REMARK  121  A    between atoms: _314  and  _315
REMARK  122  A    between atoms: _314  and  _317
REMARK  123  A    between atoms: _317  and  _318
REMARK  124  A    between atoms: _321  and  _323
REMARK  125  A    between atoms: _323  and  _324
REMARK  126  A    between atoms: _323  and  _326
REMARK  127  A    between atoms: _326  and  _327
REMARK  128  A    between atoms: _332  and  _334
REMARK  129  A    between atoms: _334  and  _335
REMARK  130  A    between atoms: _334  and  _337
REMARK  131  A    between atoms: _337  and  _338
REMARK  132  A    between atoms: _338  and  _339
REMARK  133  A    between atoms: _344  and  _346
REMARK  134  A    between atoms: _346  and  _347
REMARK  135  A    between atoms: _346  and  _349
REMARK  136  A    between atoms: _349  and  _350
REMARK  137  A    between atoms: _360  and  _362
REMARK  138  A    between atoms: _362  and  _363
REMARK  139  A    between atoms: _365  and  _367
REMARK  140  A    between atoms: _367  and  _368
REMARK  141  A    between atoms: _367  and  _370
REMARK  142  A    between atoms: _370  and  _371
REMARK                            x       y       z     vdW  Elec       q    Type
REMARK                         _______ _______ _______ _____ _____    ______ ____
ROOT
ATOM      1  CG  TYR A   1      31.793  11.137  50.670  0.00  0.00    -0.020 A 
ATOM      2  CD2 TYR A   1      32.185   9.868  51.043  0.00  0.00    -0.001 A 
ATOM      3  CE2 TYR A   1      31.278   8.794  51.011  0.00  0.00    +0.036 A 
ATOM      4  CZ  TYR A   1      29.982   9.016  50.602  0.00  0.00    +0.134 A 
ATOM      5  CE1 TYR A   1      29.591  10.272  50.246  0.00  0.00    +0.036 A 
ATOM      6  CD1 TYR A   1      30.487  11.312  50.277  0.00  0.00    -0.001 A 
ENDROOT
BRANCH   4   7
ATOM      7  OH  TYR A   1      29.039   7.997  50.558  0.00  0.00    -0.506 OA
ATOM      8  HH  TYR A   1      28.923   7.617  51.465  0.00  0.00    +0.292 HD
ENDBRANCH   4   7
BRANCH   1   9
ATOM      9  CB  TYR A   1      32.768  12.305  50.684  0.00  0.00    +0.051 C 
BRANCH   9  10
ATOM     10  CA  TYR A   1      32.619  13.281  51.861  0.00  0.00    +0.137 C 
BRANCH  10  11
ATOM     11  N   TYR A   1      32.368  12.555  53.112  0.00  0.00    -0.239 NA
ATOM     12  H   TYR A   1      32.349  11.515  53.090  0.00  0.00    +0.142 HD
ENDBRANCH  10  11
BRANCH  10  13
ATOM     13  C   TYR A   1      31.575  14.364  51.554  0.00  0.00    +0.224 C 
ATOM     14  O   TYR A   1      31.885  15.337  50.848  0.00  0.00    -0.287 OA
ENDBRANCH  10  13
ENDBRANCH   9  10
ENDBRANCH   1   9
TORSDOF 5
REMARK  Name = ../refined-set-2016/2xib/2xib_pocket.pdb
REMARK  142 active torsions:
REMARK  status: ('A' for Active; 'I' for Inactive)
REMARK    1  A    between atoms: _1  and  _3
REMARK    2  A    between atoms: _3  and  _4
REMARK    3  A    between atoms: _3  and  _6
REMARK    4  A    between atoms: _6  and  _7
REMARK    5  A    between atoms: _13  and  _15
REMARK    6  A    between atoms: _15  and  _16
REMARK    7  A    between atoms: _15  and  _18
REMARK    8  A    between atoms: _18  and  _19
REMARK    9  A    between atoms: _24  and  _26
REMARK   10  A    between atoms: _26  and  _27
REMARK   11  A    between atoms: _26  and  _29
REMARK   12  A    between atoms: _29  and  _30
REMARK   13  A    between atoms: _35  and  _36
REMARK   14  A    between atoms: _38  and  _40
REMARK   15  A    between atoms: _40  and  _41
REMARK   16  A    between atoms: _44  and  _46
REMARK   17  A    between atoms: _46  and  _47
REMARK   18  A    between atoms: _50  and  _52
REMARK   19  A    between atoms: _52  and  _53
REMARK   20  A    between atoms: _52  and  _55
REMARK   21  A    between atoms: _55  and  _56
REMARK   22  A    between atoms: _56  and  _57
REMARK   23  A    between atoms: _60  and  _62
REMARK   24  A    between atoms: _62  and  _63
REMARK   25  A    between atoms: _62  and  _65
REMARK   26  A    between atoms: _65  and  _66
REMARK   27  A    between atoms: _76  and  _78
REMARK   28  A    between atoms: _78  and  _79
REMARK   29  A    between atoms: _78  and  _81
REMARK   30  A    between atoms: _81  and  _82
REMARK   31  A    between atoms: _85  and  _87
REMARK   32  A    between atoms: _87  and  _88
REMARK   33  A    between atoms: _87  and  _90
REMARK   34  A    between atoms: _90  and  _91
REMARK   35  A    between atoms: _91  and  _92
REMARK   36  A    between atoms: _92  and  _93
REMARK   37  A    between atoms: _93  and  _94
REMARK   38  A    between atoms: _98  and  _100
REMARK   39  A    between atoms: _100  and  _101
REMARK   40  A    between atoms: _100  and  _103
REMARK   41  A    between atoms: _103  and  _104
REMARK   42  A    between atoms: _109  and  _111
REMARK   43  A    between atoms: _111  and  _112
REMARK   44  A    between atoms: _111  and  _114
REMARK   45  A    between atoms: _114  and  _115
REMARK   46  A    between atoms: _120  and  _122
REMARK   47  A    between atoms: _122  and  _123
REMARK   48  A    between atoms: _122  and  _125
REMARK   49  A    between atoms: _125  and  _126
REMARK   50  A    between atoms: _126  and  _127
REMARK   51  A    between atoms: _130  and  _132
REMARK   52  A    between atoms: _132  and  _133
REMARK   53  A    between atoms: _132  and  _135
REMARK   54  A    between atoms: _135  and  _136
REMARK   55  A    between atoms: _141  and  _142
REMARK   56  A    between atoms: _144  and  _146
REMARK   57  A    between atoms: _146  and  _147
REMARK   58  A    between atoms: _146  and  _149
REMARK   59  A    between atoms: _149  and  _150
REMARK   60  A    between atoms: _152  and  _154
REMARK   61  A    between atoms: _154  and  _155
REMARK   62  A    between atoms: _154  and  _157
REMARK   63  A    between atoms: _157  and  _158
REMARK   64  A    between atoms: _158  and  _159
REMARK   65  A    between atoms: _161  and  _163
REMARK   66  A    between atoms: _163  and  _164
REMARK   67  A    between atoms: _163  and  _166
REMARK   68  A    between atoms: _166  and  _167
REMARK   69  A    between atoms: _177  and  _179
REMARK   70  A    between atoms: _179  and  _180
REMARK   71  A    between atoms: _179  and  _182
REMARK   72  A    between atoms: _182  and  _183
REMARK   73  A    between atoms: _193  and  _195
REMARK   74  A    between atoms: _195  and  _196
REMARK   75  A    between atoms: _195  and  _198
REMARK   76  A    between atoms: _198  and  _199
REMARK   77  A    between atoms: _205  and  _207
REMARK   78  A    between atoms: _207  and  _208
REMARK   79  A    between atoms: _207  and  _210
REMARK   80  A    between atoms: _210  and  _211
REMARK   81  A    between atoms: _214  and  _216
REMARK   82  A    between atoms: _216  and  _217
REMARK   83  A    between atoms: _219  and  _221
REMARK   84  A    between atoms: _221  and  _222
REMARK   85  A    between atoms: _221  and  _224
REMARK   86  A    between atoms: _224  and  _225
REMARK   87  A    between atoms: _228  and  _230
REMARK   88  A    between atoms: _230  and  _231
REMARK   89  A    between atoms: _230  and  _233
REMARK   90  A    between atoms: _233  and  _234
REMARK   91  A    between atoms: _244  and  _246
REMARK   92  A    between atoms: _246  and  _247
REMARK   93  A    between atoms: _246  and  _249
REMARK   94  A    between atoms: _249  and  _250
REMARK   95  A    between atoms: _250  and  _251
REMARK   96  A    between atoms: _251  and  _252
REMARK   97  A    between atoms: _261  and  _263
REMARK   98  A    between atoms: _263  and  _264
REMARK   99  A    between atoms: _263  and  _266
REMARK  100  A    between atoms: _266  and  _267
REMARK  101  A    between atoms: _269  and  _271
REMARK  102  A    between atoms: _271  and  _272
REMARK  103  A    between atoms: _271  and  _274
REMARK  104  A    between atoms: _274  and  _275
REMARK  105  A    between atoms: _275  and  _276
REMARK  106  A    between atoms: _279  and  _281
REMARK  107  A    between atoms: _281  and  _282
REMARK  108  A    between atoms: _281  and  _284
REMARK  109  A    between atoms: _284  and  _285
REMARK  110  A    between atoms: _285  and  _286
REMARK  111  A    between atoms: _286  and  _287
REMARK  112  A    between atoms: _296  and  _298
REMARK  113  A    between atoms: _298  and  _299
REMARK  114  A    between atoms: _298  and  _301
REMARK  115  A    between atoms: _303  and  _305
REMARK  116  A    between atoms: _305  and  _306
REMARK  117  A    between atoms: _305  and  _308
REMARK  118  A    between atoms: _308  and  _309
REMARK  119  A    between atoms: _309  and  _310
REMARK  120  A    between atoms: _312  and  _314
REMARK  121  A    between atoms: _314  and  _315
REMARK  122  A    between atoms: _314  and  _317
REMARK  123  A    between atoms: _317  and  _318
REMARK  124  A    between atoms: _321  and  _323
REMARK  125  A    between atoms: _323  and  _324
REMARK  126  A    between atoms: _323  and  _326
REMARK  127  A    between atoms: _326  and  _327
REMARK  128  A    between atoms: _332  and  _334
REMARK  129  A    between atoms: _334  and  _335
REMARK  130  A    between atoms: _334  and  _337
REMARK  131  A    between atoms: _337  and  _338
REMARK  132  A    between atoms: _338  and  _339
REMARK  133  A    between atoms: _344  and  _346
REMARK  134  A    between atoms: _346  and  _347
REMARK  135  A    between atoms: _346  and  _349
REMARK  136  A    between atoms: _349  and  _350
REMARK  137  A    between atoms: _360  and  _362
REMARK  138  A    between atoms: _362  and  _363
REMARK  139  A    between atoms: _365  and  _367
REMARK  140  A    between atoms: _367  and  _368
REMARK  141  A    between atoms: _367  and  _370
REMARK  142  A    between atoms: _370  and  _371
REMARK                            x       y       z     vdW  Elec       q    Type
REMARK                         _______ _______ _______ _____ _____    ______ ____
ROOT
ATOM      1  CA  GLU A   3      33.341  10.564  47.454  0.00  0.00    +0.149 C 
ENDROOT
BRANCH   1   4
ATOM      2  C   ALA A   2      33.616  12.814  46.610  0.00  0.00    +0.241 C 
ATOM      3  O   ALA A   2      34.380  13.086  47.544  0.00  0.00    -0.273 OA
ATOM      4  N   GLU A   3      33.047  11.617  46.482  0.00  0.00    -0.297 N 
ATOM      5  H   GLU A   3      32.395  11.431  45.693  0.00  0.00    +0.150 HD
BRANCH   2   6
ATOM      6  CA  ALA A   2      33.337  13.855  45.525  0.00  0.00    +0.149 C 
ATOM      7  CB  ALA A   2      32.132  14.714  45.905  0.00  0.00    +0.031 C 
BRANCH   6   9
ATOM      8  C   ALA A   1      34.180  12.640  43.582  0.00  0.00    +0.238 C 
ATOM      9  N   ALA A   2      33.175  13.267  44.176  0.00  0.00    -0.297 N 
ATOM     10  H   ALA A   2      32.260  13.347  43.688  0.00  0.00    +0.150 HD
ATOM     11  O   ALA A   1      35.263  12.376  44.156  0.00  0.00    -0.274 OA
BRANCH   8  12
ATOM     12  CA  ALA A   1      33.935  12.248  42.126  0.00  0.00    +0.145 C 
ATOM     13  CB  ALA A   1      33.709  10.765  42.007  0.00  0.00    +0.028 C 
BRANCH  12  14
ATOM     14  N   ALA A   1      35.061  12.670  41.278  0.00  0.00    -0.238 NA
ATOM     15  H   ALA A   1      35.532  11.966  40.675  0.00  0.00    +0.142 HD
ENDBRANCH  12  14
ENDBRANCH   8  12
ENDBRANCH   6   9
ENDBRANCH   2   6
ENDBRANCH   1   4
BRANCH   1  16
ATOM     16  C   GLU A   3      34.807  10.069  47.423  0.00  0.00    +0.241 C 
ATOM     17  O   GLU A   3      35.270   9.422  48.387  0.00  0.00    -0.273 OA
ATOM     18  N   TRP A   4      35.518  10.374  46.335  0.00  0.00    -0.298 N 
ATOM     19  H   TRP A   4      35.027  10.822  45.535  0.00  0.00    +0.150 HD
BRANCH  18  20
ATOM     20  CA  TRP A   4      36.968  10.109  46.207  0.00  0.00    +0.141 C 
BRANCH  20  21
ATOM     21  C   TRP A   4      37.875  11.321  46.542  0.00  0.00    +0.227 C 
ATOM     22  O   TRP A   4      39.035  11.336  46.148  0.00  0.00    -0.286 OA
ENDBRANCH  20  21
BRANCH  20  23
ATOM     23  CB  TRP A   4      37.299   9.616  44.772  0.00  0.00    +0.056 C 
BRANCH  23  24
ATOM     24  CG  TRP A   4      36.989   8.176  44.520  0.00  0.00    -0.002 A 
ATOM     25  CD2 TRP A   4      37.924   7.093  44.476  0.00  0.00    +0.013 A 
ATOM     26  CE3 TRP A   4      39.307   7.002  44.644  0.00  0.00    +0.001 A 
ATOM     27  CZ3 TRP A   4      39.917   5.767  44.529  0.00  0.00    +0.000 A 
ATOM     28  CH2 TRP A   4      39.168   4.607  44.287  0.00  0.00    +0.001 A 
ATOM     29  CZ2 TRP A   4      37.800   4.659  44.125  0.00  0.00    +0.017 A 
ATOM     30  CE2 TRP A   4      37.190   5.913  44.225  0.00  0.00    +0.056 A 
ATOM     31  NE1 TRP A   4      35.868   6.262  44.133  0.00  0.00    -0.352 N 
ATOM     32  HE1 TRP A   4      35.078   5.605  43.970  0.00  0.00    +0.166 HD
ATOM     33  CD1 TRP A   4      35.757   7.626  44.292  0.00  0.00    +0.068 A 
ENDBRANCH  23  24
ENDBRANCH  20  23
ENDBRANCH  18  20
ENDBRANCH   1  16
BRANCH   1  34
ATOM     34  CB  GLU A   3      32.325   9.414  47.372  0.00  0.00    +0.041 C 
BRANCH  34  35
ATOM     35  CG  GLU A   3      32.453   8.392  46.219  0.00  0.00    +0.116 C 
BRANCH  35  36
ATOM     36  CD  GLU A   3      32.128   8.941  44.840  0.00  0.00    +0.365 C 
ATOM     37  OE2 GLU A   3      31.649  10.099  44.731  0.00  0.00    -0.246 OA
ATOM     38  OE1 GLU A   3      32.376   8.194  43.852  0.00  0.00    -0.246 OA
ENDBRANCH  35  36
ENDBRANCH  34  35
ENDBRANCH   1  34
TORSDOF 13
REMARK  Name = ../refined-set-2016/2xib/2xib_pocket.pdb
REMARK  142 active torsions:
REMARK  status: ('A' for Active; 'I' for Inactive)
REMARK    1  A    between atoms: _1  and  _3
REMARK    2  A    between atoms: _3  and  _4
REMARK    3  A    between atoms: _3  and  _6
REMARK    4  A    between atoms: _6  and  _7
REMARK    5  A    between atoms: _13  and  _15
REMARK    6  A    between atoms: _15  and  _16
REMARK    7  A    between atoms: _15  and  _18
REMARK    8  A    between atoms: _18  and  _19
REMARK    9  A    between atoms: _24  and  _26
REMARK   10  A    between atoms: _26  and  _27
REMARK   11  A    between atoms: _26  and  _29
REMARK   12  A    between atoms: _29  and  _30
REMARK   13  A    between atoms: _35  and  _36
REMARK   14  A    between atoms: _38  and  _40
REMARK   15  A    between atoms: _40  and  _41
REMARK   16  A    between atoms: _44  and  _46
REMARK   17  A    between atoms: _46  and  _47
REMARK   18  A    between atoms: _50  and  _52
REMARK   19  A    between atoms: _52  and  _53
REMARK   20  A    between atoms: _52  and  _55
REMARK   21  A    between atoms: _55  and  _56
REMARK   22  A    between atoms: _56  and  _57
REMARK   23  A    between atoms: _60  and  _62
REMARK   24  A    between atoms: _62  and  _63
REMARK   25  A    between atoms: _62  and  _65
REMARK   26  A    between atoms: _65  and  _66
REMARK   27  A    between atoms: _76  and  _78
REMARK   28  A    between atoms: _78  and  _79
REMARK   29  A    between atoms: _78  and  _81
REMARK   30  A    between atoms: _81  and  _82
REMARK   31  A    between atoms: _85  and  _87
REMARK   32  A    between atoms: _87  and  _88
REMARK   33  A    between atoms: _87  and  _90
REMARK   34  A    between atoms: _90  and  _91
REMARK   35  A    between atoms: _91  and  _92
REMARK   36  A    between atoms: _92  and  _93
REMARK   37  A    between atoms: _93  and  _94
REMARK   38  A    between atoms: _98  and  _100
REMARK   39  A    between atoms: _100  and  _101
REMARK   40  A    between atoms: _100  and  _103
REMARK   41  A    between atoms: _103  and  _104
REMARK   42  A    between atoms: _109  and  _111
REMARK   43  A    between atoms: _111  and  _112
REMARK   44  A    between atoms: _111  and  _114
REMARK   45  A    between atoms: _114  and  _115
REMARK   46  A    between atoms: _120  and  _122
REMARK   47  A    between atoms: _122  and  _123
REMARK   48  A    between atoms: _122  and  _125
REMARK   49  A    between atoms: _125  and  _126
REMARK   50  A    between atoms: _126  and  _127
REMARK   51  A    between atoms: _130  and  _132
REMARK   52  A    between atoms: _132  and  _133
REMARK   53  A    between atoms: _132  and  _135
REMARK   54  A    between atoms: _135  and  _136
REMARK   55  A    between atoms: _141  and  _142
REMARK   56  A    between atoms: _144  and  _146
REMARK   57  A    between atoms: _146  and  _147
REMARK   58  A    between atoms: _146  and  _149
REMARK   59  A    between atoms: _149  and  _150
REMARK   60  A    between atoms: _152  and  _154
REMARK   61  A    between atoms: _154  and  _155
REMARK   62  A    between atoms: _154  and  _157
REMARK   63  A    between atoms: _157  and  _158
REMARK   64  A    between atoms: _158  and  _159
REMARK   65  A    between atoms: _161  and  _163
REMARK   66  A    between atoms: _163  and  _164
REMARK   67  A    between atoms: _163  and  _166
REMARK   68  A    between atoms: _166  and  _167
REMARK   69  A    between atoms: _177  and  _179
REMARK   70  A    between atoms: _179  and  _180
REMARK   71  A    between atoms: _179  and  _182
REMARK   72  A    between atoms: _182  and  _183
REMARK   73  A    between atoms: _193  and  _195
REMARK   74  A    between atoms: _195  and  _196
REMARK   75  A    between atoms: _195  and  _198
REMARK   76  A    between atoms: _198  and  _199
REMARK   77  A    between atoms: _205  and  _207
REMARK   78  A    between atoms: _207  and  _208
REMARK   79  A    between atoms: _207  and  _210
REMARK   80  A    between atoms: _210  and  _211
REMARK   81  A    between atoms: _214  and  _216
REMARK   82  A    between atoms: _216  and  _217
REMARK   83  A    between atoms: _219  and  _221
REMARK   84  A    between atoms: _221  and  _222
REMARK   85  A    between atoms: _221  and  _224
REMARK   86  A    between atoms: _224  and  _225
REMARK   87  A    between atoms: _228  and  _230
REMARK   88  A    between atoms: _230  and  _231
REMARK   89  A    between atoms: _230  and  _233
REMARK   90  A    between atoms: _233  and  _234
REMARK   91  A    between atoms: _244  and  _246
REMARK   92  A    between atoms: _246  and  _247
REMARK   93  A    between atoms: _246  and  _249
REMARK   94  A    between atoms: _249  and  _250
REMARK   95  A    between atoms: _250  and  _251
REMARK   96  A    between atoms: _251  and  _252
REMARK   97  A    between atoms: _261  and  _263
REMARK   98  A    between atoms: _263  and  _264
REMARK   99  A    between atoms: _263  and  _266
REMARK  100  A    between atoms: _266  and  _267
REMARK  101  A    between atoms: _269  and  _271
REMARK  102  A    between atoms: _271  and  _272
REMARK  103  A    between atoms: _271  and  _274
REMARK  104  A    between atoms: _274  and  _275
REMARK  105  A    between atoms: _275  and  _276
REMARK  106  A    between atoms: _279  and  _281
REMARK  107  A    between atoms: _281  and  _282
REMARK  108  A    between atoms: _281  and  _284
REMARK  109  A    between atoms: _284  and  _285
REMARK  110  A    between atoms: _285  and  _286
REMARK  111  A    between atoms: _286  and  _287
REMARK  112  A    between atoms: _296  and  _298
REMARK  113  A    between atoms: _298  and  _299
REMARK  114  A    between atoms: _298  and  _301
REMARK  115  A    between atoms: _303  and  _305
REMARK  116  A    between atoms: _305  and  _306
REMARK  117  A    between atoms: _305  and  _308
REMARK  118  A    between atoms: _308  and  _309
REMARK  119  A    between atoms: _309  and  _310
REMARK  120  A    between atoms: _312  and  _314
REMARK  121  A    between atoms: _314  and  _315
REMARK  122  A    between atoms: _314  and  _317
REMARK  123  A    between atoms: _317  and  _318
REMARK  124  A    between atoms: _321  and  _323
REMARK  125  A    between atoms: _323  and  _324
REMARK  126  A    between atoms: _323  and  _326
REMARK  127  A    between atoms: _326  and  _327
REMARK  128  A    between atoms: _332  and  _334
REMARK  129  A    between atoms: _334  and  _335
REMARK  130  A    between atoms: _334  and  _337
REMARK  131  A    between atoms: _337  and  _338
REMARK  132  A    between atoms: _338  and  _339
REMARK  133  A    between atoms: _344  and  _346
REMARK  134  A    between atoms: _346  and  _347
REMARK  135  A    between atoms: _346  and  _349
REMARK  136  A    between atoms: _349  and  _350
REMARK  137  A    between atoms: _360  and  _362
REMARK  138  A    between atoms: _362  and  _363
REMARK  139  A    between atoms: _365  and  _367
REMARK  140  A    between atoms: _367  and  _368
REMARK  141  A    between atoms: _367  and  _370
REMARK  142  A    between atoms: _370  and  _371
REMARK                            x       y       z     vdW  Elec       q    Type
REMARK                         _______ _______ _______ _____ _____    ______ ____
ROOT
ATOM      1  CA  THR A   1      26.256   3.037  51.565  0.00  0.00    +0.160 C 
ENDROOT
BRANCH   1   2
ATOM      2  N   THR A   1      24.868   3.116  51.161  0.00  0.00    -0.237 NA
ATOM      3  H   THR A   1      24.538   3.994  50.712  0.00  0.00    +0.142 HD
ENDBRANCH   1   2
BRANCH   1   4
ATOM      4  C   THR A   1      26.320   2.925  53.095  0.00  0.00    +0.227 C 
ATOM      5  O   THR A   1      26.188   3.937  53.830  0.00  0.00    -0.287 OA
ENDBRANCH   1   4
BRANCH   1   6
ATOM      6  CB  THR A   1      27.019   4.290  51.112  0.00  0.00    +0.134 C 
ATOM      7  CG2 THR A   1      27.023   4.418  49.567  0.00  0.00    +0.034 C 
BRANCH   6   8
ATOM      8  OG1 THR A   1      26.399   5.459  51.691  0.00  0.00    -0.383 OA
ATOM      9  HG1 THR A   1      26.427   5.391  52.678  0.00  0.00    +0.210 HD
ENDBRANCH   6   8
ENDBRANCH   1   6
TORSDOF 4
REMARK  Name = ../refined-set-2016/2xib/2xib_pocket.pdb
REMARK  142 active torsions:
REMARK  status: ('A' for Active; 'I' for Inactive)
REMARK    1  A    between atoms: _1  and  _3
REMARK    2  A    between atoms: _3  and  _4
REMARK    3  A    between atoms: _3  and  _6
REMARK    4  A    between atoms: _6  and  _7
REMARK    5  A    between atoms: _13  and  _15
REMARK    6  A    between atoms: _15  and  _16
REMARK    7  A    between atoms: _15  and  _18
REMARK    8  A    between atoms: _18  and  _19
REMARK    9  A    between atoms: _24  and  _26
REMARK   10  A    between atoms: _26  and  _27
REMARK   11  A    between atoms: _26  and  _29
REMARK   12  A    between atoms: _29  and  _30
REMARK   13  A    between atoms: _35  and  _36
REMARK   14  A    between atoms: _38  and  _40
REMARK   15  A    between atoms: _40  and  _41
REMARK   16  A    between atoms: _44  and  _46
REMARK   17  A    between atoms: _46  and  _47
REMARK   18  A    between atoms: _50  and  _52
REMARK   19  A    between atoms: _52  and  _53
REMARK   20  A    between atoms: _52  and  _55
REMARK   21  A    between atoms: _55  and  _56
REMARK   22  A    between atoms: _56  and  _57
REMARK   23  A    between atoms: _60  and  _62
REMARK   24  A    between atoms: _62  and  _63
REMARK   25  A    between atoms: _62  and  _65
REMARK   26  A    between atoms: _65  and  _66
REMARK   27  A    between atoms: _76  and  _78
REMARK   28  A    between atoms: _78  and  _79
REMARK   29  A    between atoms: _78  and  _81
REMARK   30  A    between atoms: _81  and  _82
REMARK   31  A    between atoms: _85  and  _87
REMARK   32  A    between atoms: _87  and  _88
REMARK   33  A    between atoms: _87  and  _90
REMARK   34  A    between atoms: _90  and  _91
REMARK   35  A    between atoms: _91  and  _92
REMARK   36  A    between atoms: _92  and  _93
REMARK   37  A    between atoms: _93  and  _94
REMARK   38  A    between atoms: _98  and  _100
REMARK   39  A    between atoms: _100  and  _101
REMARK   40  A    between atoms: _100  and  _103
REMARK   41  A    between atoms: _103  and  _104
REMARK   42  A    between atoms: _109  and  _111
REMARK   43  A    between atoms: _111  and  _112
REMARK   44  A    between atoms: _111  and  _114
REMARK   45  A    between atoms: _114  and  _115
REMARK   46  A    between atoms: _120  and  _122
REMARK   47  A    between atoms: _122  and  _123
REMARK   48  A    between atoms: _122  and  _125
REMARK   49  A    between atoms: _125  and  _126
REMARK   50  A    between atoms: _126  and  _127
REMARK   51  A    between atoms: _130  and  _132
REMARK   52  A    between atoms: _132  and  _133
REMARK   53  A    between atoms: _132  and  _135
REMARK   54  A    between atoms: _135  and  _136
REMARK   55  A    between atoms: _141  and  _142
REMARK   56  A    between atoms: _144  and  _146
REMARK   57  A    between atoms: _146  and  _147
REMARK   58  A    between atoms: _146  and  _149
REMARK   59  A    between atoms: _149  and  _150
REMARK   60  A    between atoms: _152  and  _154
REMARK   61  A    between atoms: _154  and  _155
REMARK   62  A    between atoms: _154  and  _157
REMARK   63  A    between atoms: _157  and  _158
REMARK   64  A    between atoms: _158  and  _159
REMARK   65  A    between atoms: _161  and  _163
REMARK   66  A    between atoms: _163  and  _164
REMARK   67  A    between atoms: _163  and  _166
REMARK   68  A    between atoms: _166  and  _167
REMARK   69  A    between atoms: _177  and  _179
REMARK   70  A    between atoms: _179  and  _180
REMARK   71  A    between atoms: _179  and  _182
REMARK   72  A    between atoms: _182  and  _183
REMARK   73  A    between atoms: _193  and  _195
REMARK   74  A    between atoms: _195  and  _196
REMARK   75  A    between atoms: _195  and  _198
REMARK   76  A    between atoms: _198  and  _199
REMARK   77  A    between atoms: _205  and  _207
REMARK   78  A    between atoms: _207  and  _208
REMARK   79  A    between atoms: _207  and  _210
REMARK   80  A    between atoms: _210  and  _211
REMARK   81  A    between atoms: _214  and  _216
REMARK   82  A    between atoms: _216  and  _217
REMARK   83  A    between atoms: _219  and  _221
REMARK   84  A    between atoms: _221  and  _222
REMARK   85  A    between atoms: _221  and  _224
REMARK   86  A    between atoms: _224  and  _225
REMARK   87  A    between atoms: _228  and  _230
REMARK   88  A    between atoms: _230  and  _231
REMARK   89  A    between atoms: _230  and  _233
REMARK   90  A    between atoms: _233  and  _234
REMARK   91  A    between atoms: _244  and  _246
REMARK   92  A    between atoms: _246  and  _247
REMARK   93  A    between atoms: _246  and  _249
REMARK   94  A    between atoms: _249  and  _250
REMARK   95  A    between atoms: _250  and  _251
REMARK   96  A    between atoms: _251  and  _252
REMARK   97  A    between atoms: _261  and  _263
REMARK   98  A    between atoms: _263  and  _264
REMARK   99  A    between atoms: _263  and  _266
REMARK  100  A    between atoms: _266  and  _267
REMARK  101  A    between atoms: _269  and  _271
REMARK  102  A    between atoms: _271  and  _272
REMARK  103  A    between atoms: _271  and  _274
REMARK  104  A    between atoms: _274  and  _275
REMARK  105  A    between atoms: _275  and  _276
REMARK  106  A    between atoms: _279  and  _281
REMARK  107  A    between atoms: _281  and  _282
REMARK  108  A    between atoms: _281  and  _284
REMARK  109  A    between atoms: _284  and  _285
REMARK  110  A    between atoms: _285  and  _286
REMARK  111  A    between atoms: _286  and  _287
REMARK  112  A    between atoms: _296  and  _298
REMARK  113  A    between atoms: _298  and  _299
REMARK  114  A    between atoms: _298  and  _301
REMARK  115  A    between atoms: _303  and  _305
REMARK  116  A    between atoms: _305  and  _306
REMARK  117  A    between atoms: _305  and  _308
REMARK  118  A    between atoms: _308  and  _309
REMARK  119  A    between atoms: _309  and  _310
REMARK  120  A    between atoms: _312  and  _314
REMARK  121  A    between atoms: _314  and  _315
REMARK  122  A    between atoms: _314  and  _317
REMARK  123  A    between atoms: _317  and  _318
REMARK  124  A    between atoms: _321  and  _323
REMARK  125  A    between atoms: _323  and  _324
REMARK  126  A    between atoms: _323  and  _326
REMARK  127  A    between atoms: _326  and  _327
REMARK  128  A    between atoms: _332  and  _334
REMARK  129  A    between atoms: _334  and  _335
REMARK  130  A    between atoms: _334  and  _337
REMARK  131  A    between atoms: _337  and  _338
REMARK  132  A    between atoms: _338  and  _339
REMARK  133  A    between atoms: _344  and  _346
REMARK  134  A    between atoms: _346  and  _347
REMARK  135  A    between atoms: _346  and  _349
REMARK  136  A    between atoms: _349  and  _350
REMARK  137  A    between atoms: _360  and  _362
REMARK  138  A    between atoms: _362  and  _363
REMARK  139  A    between atoms: _365  and  _367
REMARK  140  A    between atoms: _367  and  _368
REMARK  141  A    between atoms: _367  and  _370
REMARK  142  A    between atoms: _370  and  _371
REMARK                            x       y       z     vdW  Elec       q    Type
REMARK                         _______ _______ _______ _____ _____    ______ ____
ROOT
ATOM      1  C   HIS A   2      33.593   3.606  51.775  0.00  0.00    +0.241 C 
ATOM      2  O   HIS A   2      34.038   3.108  52.812  0.00  0.00    -0.273 OA
ATOM      3  N   HIS A   3      34.391   3.921  50.759  0.00  0.00    -0.297 N 
ATOM      4  H   HIS A   3      33.993   4.368  49.908  0.00  0.00    +0.150 HD
ENDROOT
BRANCH   3   5
ATOM      5  CA  HIS A   3      35.839   3.640  50.832  0.00  0.00    +0.155 C 
BRANCH   5   6
ATOM      6  C   HIS A   3      36.492   4.315  52.037  0.00  0.00    +0.241 C 
ATOM      7  O   HIS A   3      37.412   3.776  52.631  0.00  0.00    -0.273 OA
ATOM      8  N   GLU A   4      36.048   5.512  52.365  0.00  0.00    -0.298 N 
ATOM      9  H   GLU A   4      35.307   5.956  51.786  0.00  0.00    +0.150 HD
BRANCH   8  10
ATOM     10  CA  GLU A   4      36.573   6.227  53.521  0.00  0.00    +0.137 C 
BRANCH  10  11
ATOM     11  C   GLU A   4      36.512   5.438  54.844  0.00  0.00    +0.227 C 
ATOM     12  O   GLU A   4      37.288   5.728  55.740  0.00  0.00    -0.286 OA
ENDBRANCH  10  11
BRANCH  10  13
ATOM     13  CB  GLU A   4      35.873   7.568  53.677  0.00  0.00    +0.039 C 
BRANCH  13  14
ATOM     14  CG  GLU A   4      34.339   7.443  53.722  0.00  0.00    +0.116 C 
BRANCH  14  15
ATOM     15  CD  GLU A   4      33.640   8.734  54.115  0.00  0.00    +0.365 C 
ATOM     16  OE2 GLU A   4      32.506   8.688  54.697  0.00  0.00    -0.246 OA
ATOM     17  OE1 GLU A   4      34.234   9.798  53.826  0.00  0.00    -0.246 OA
ENDBRANCH  14  15
ENDBRANCH  13  14
ENDBRANCH  10  13
ENDBRANCH   8  10
ENDBRANCH   5   6
BRANCH   5  18
ATOM     18  CB  HIS A   3      36.616   4.073  49.570  0.00  0.00    +0.076 C 
BRANCH  18  19
ATOM     19  CG  HIS A   3      36.041   3.579  48.277  0.00  0.00    +0.082 A 
ATOM     20  ND1 HIS A   3      35.541   2.302  48.113  0.00  0.00    -0.227 NA
ATOM     21  CE1 HIS A   3      35.133   2.152  46.864  0.00  0.00    +0.199 A 
ATOM     22  NE2 HIS A   3      35.341   3.281  46.212  0.00  0.00    -0.221 NA
ATOM     23  CD2 HIS A   3      35.913   4.190  47.071  0.00  0.00    +0.115 A 
ENDBRANCH  18  19
ENDBRANCH   5  18
ENDBRANCH   3   5
BRANCH   1  24
ATOM     24  CA  HIS A   2      32.063   3.757  51.620  0.00  0.00    +0.155 C 
BRANCH  24  26
ATOM     25  C   LYS A   1      31.001   2.340  53.250  0.00  0.00    +0.238 C 
ATOM     26  N   HIS A   2      31.444   3.540  52.928  0.00  0.00    -0.297 N 
ATOM     27  H   HIS A   2      31.354   4.328  53.601  0.00  0.00    +0.150 HD
ATOM     28  O   LYS A   1      31.027   1.391  52.437  0.00  0.00    -0.274 OA
BRANCH  25  29
ATOM     29  CA  LYS A   1      30.428   2.156  54.656  0.00  0.00    +0.145 C 
BRANCH  29  30
ATOM     30  N   LYS A   1      29.042   1.775  54.485  0.00  0.00    -0.238 NA
ATOM     31  H   LYS A   1      28.768   1.345  53.579  0.00  0.00    +0.142 HD
ENDBRANCH  29  30
BRANCH  29  32
ATOM     32  CB  LYS A   1      31.194   1.051  55.400  0.00  0.00    +0.026 C 
BRANCH  32  33
ATOM     33  CG  LYS A   1      32.671   1.338  55.661  0.00  0.00    -0.000 C 
BRANCH  33  34
ATOM     34  CD  LYS A   1      33.404   0.216  56.382  0.00  0.00    -0.024 C 
BRANCH  34  35
ATOM     35  CE  LYS A   1      33.772  -0.974  55.500  0.00  0.00    -0.086 C 
BRANCH  35  36
ATOM     36  NZ  LYS A   1      34.759  -1.942  56.155  0.00  0.00    +0.380 N 
ATOM     37  HZ1 LYS A   1      34.343  -2.321  57.030  0.00  0.00    -0.089 HD
ATOM     38  HZ2 LYS A   1      35.640  -1.437  56.379  0.00  0.00    -0.089 HD
ATOM     39  HZ3 LYS A   1      34.963  -2.724  55.500  0.00  0.00    -0.089 HD
ENDBRANCH  35  36
ENDBRANCH  34  35
ENDBRANCH  33  34
ENDBRANCH  32  33
ENDBRANCH  29  32
ENDBRANCH  25  29
ENDBRANCH  24  26
BRANCH  24  40
ATOM     40  CB  HIS A   2      31.608   5.044  50.964  0.00  0.00    +0.076 C 
BRANCH  40  41
ATOM     41  CG  HIS A   2      31.852   5.064  49.481  0.00  0.00    +0.082 A 
ATOM     42  ND1 HIS A   2      33.022   5.538  48.931  0.00  0.00    -0.227 NA
ATOM     43  CE1 HIS A   2      32.975   5.404  47.616  0.00  0.00    +0.199 A 
ATOM     44  NE2 HIS A   2      31.818   4.858  47.295  0.00  0.00    -0.221 NA
ATOM     45  CD2 HIS A   2      31.107   4.617  48.444  0.00  0.00    +0.115 A 
ENDBRANCH  40  41
ENDBRANCH  24  40
ENDBRANCH   1  24
TORSDOF 20
REMARK  Name = ../refined-set-2016/2xib/2xib_pocket.pdb
REMARK  142 active torsions:
REMARK  status: ('A' for Active; 'I' for Inactive)
REMARK    1  A    between atoms: _1  and  _3
REMARK    2  A    between atoms: _3  and  _4
REMARK    3  A    between atoms: _3  and  _6
REMARK    4  A    between atoms: _6  and  _7
REMARK    5  A    between atoms: _13  and  _15
REMARK    6  A    between atoms: _15  and  _16
REMARK    7  A    between atoms: _15  and  _18
REMARK    8  A    between atoms: _18  and  _19
REMARK    9  A    between atoms: _24  and  _26
REMARK   10  A    between atoms: _26  and  _27
REMARK   11  A    between atoms: _26  and  _29
REMARK   12  A    between atoms: _29  and  _30
REMARK   13  A    between atoms: _35  and  _36
REMARK   14  A    between atoms: _38  and  _40
REMARK   15  A    between atoms: _40  and  _41
REMARK   16  A    between atoms: _44  and  _46
REMARK   17  A    between atoms: _46  and  _47
REMARK   18  A    between atoms: _50  and  _52
REMARK   19  A    between atoms: _52  and  _53
REMARK   20  A    between atoms: _52  and  _55
REMARK   21  A    between atoms: _55  and  _56
REMARK   22  A    between atoms: _56  and  _57
REMARK   23  A    between atoms: _60  and  _62
REMARK   24  A    between atoms: _62  and  _63
REMARK   25  A    between atoms: _62  and  _65
REMARK   26  A    between atoms: _65  and  _66
REMARK   27  A    between atoms: _76  and  _78
REMARK   28  A    between atoms: _78  and  _79
REMARK   29  A    between atoms: _78  and  _81
REMARK   30  A    between atoms: _81  and  _82
REMARK   31  A    between atoms: _85  and  _87
REMARK   32  A    between atoms: _87  and  _88
REMARK   33  A    between atoms: _87  and  _90
REMARK   34  A    between atoms: _90  and  _91
REMARK   35  A    between atoms: _91  and  _92
REMARK   36  A    between atoms: _92  and  _93
REMARK   37  A    between atoms: _93  and  _94
REMARK   38  A    between atoms: _98  and  _100
REMARK   39  A    between atoms: _100  and  _101
REMARK   40  A    between atoms: _100  and  _103
REMARK   41  A    between atoms: _103  and  _104
REMARK   42  A    between atoms: _109  and  _111
REMARK   43  A    between atoms: _111  and  _112
REMARK   44  A    between atoms: _111  and  _114
REMARK   45  A    between atoms: _114  and  _115
REMARK   46  A    between atoms: _120  and  _122
REMARK   47  A    between atoms: _122  and  _123
REMARK   48  A    between atoms: _122  and  _125
REMARK   49  A    between atoms: _125  and  _126
REMARK   50  A    between atoms: _126  and  _127
REMARK   51  A    between atoms: _130  and  _132
REMARK   52  A    between atoms: _132  and  _133
REMARK   53  A    between atoms: _132  and  _135
REMARK   54  A    between atoms: _135  and  _136
REMARK   55  A    between atoms: _141  and  _142
REMARK   56  A    between atoms: _144  and  _146
REMARK   57  A    between atoms: _146  and  _147
REMARK   58  A    between atoms: _146  and  _149
REMARK   59  A    between atoms: _149  and  _150
REMARK   60  A    between atoms: _152  and  _154
REMARK   61  A    between atoms: _154  and  _155
REMARK   62  A    between atoms: _154  and  _157
REMARK   63  A    between atoms: _157  and  _158
REMARK   64  A    between atoms: _158  and  _159
REMARK   65  A    between atoms: _161  and  _163
REMARK   66  A    between atoms: _163  and  _164
REMARK   67  A    between atoms: _163  and  _166
REMARK   68  A    between atoms: _166  and  _167
REMARK   69  A    between atoms: _177  and  _179
REMARK   70  A    between atoms: _179  and  _180
REMARK   71  A    between atoms: _179  and  _182
REMARK   72  A    between atoms: _182  and  _183
REMARK   73  A    between atoms: _193  and  _195
REMARK   74  A    between atoms: _195  and  _196
REMARK   75  A    between atoms: _195  and  _198
REMARK   76  A    between atoms: _198  and  _199
REMARK   77  A    between atoms: _205  and  _207
REMARK   78  A    between atoms: _207  and  _208
REMARK   79  A    between atoms: _207  and  _210
REMARK   80  A    between atoms: _210  and  _211
REMARK   81  A    between atoms: _214  and  _216
REMARK   82  A    between atoms: _216  and  _217
REMARK   83  A    between atoms: _219  and  _221
REMARK   84  A    between atoms: _221  and  _222
REMARK   85  A    between atoms: _221  and  _224
REMARK   86  A    between atoms: _224  and  _225
REMARK   87  A    between atoms: _228  and  _230
REMARK   88  A    between atoms: _230  and  _231
REMARK   89  A    between atoms: _230  and  _233
REMARK   90  A    between atoms: _233  and  _234
REMARK   91  A    between atoms: _244  and  _246
REMARK   92  A    between atoms: _246  and  _247
REMARK   93  A    between atoms: _246  and  _249
REMARK   94  A    between atoms: _249  and  _250
REMARK   95  A    between atoms: _250  and  _251
REMARK   96  A    between atoms: _251  and  _252
REMARK   97  A    between atoms: _261  and  _263
REMARK   98  A    between atoms: _263  and  _264
REMARK   99  A    between atoms: _263  and  _266
REMARK  100  A    between atoms: _266  and  _267
REMARK  101  A    between atoms: _269  and  _271
REMARK  102  A    between atoms: _271  and  _272
REMARK  103  A    between atoms: _271  and  _274
REMARK  104  A    between atoms: _274  and  _275
REMARK  105  A    between atoms: _275  and  _276
REMARK  106  A    between atoms: _279  and  _281
REMARK  107  A    between atoms: _281  and  _282
REMARK  108  A    between atoms: _281  and  _284
REMARK  109  A    between atoms: _284  and  _285
REMARK  110  A    between atoms: _285  and  _286
REMARK  111  A    between atoms: _286  and  _287
REMARK  112  A    between atoms: _296  and  _298
REMARK  113  A    between atoms: _298  and  _299
REMARK  114  A    between atoms: _298  and  _301
REMARK  115  A    between atoms: _303  and  _305
REMARK  116  A    between atoms: _305  and  _306
REMARK  117  A    between atoms: _305  and  _308
REMARK  118  A    between atoms: _308  and  _309
REMARK  119  A    between atoms: _309  and  _310
REMARK  120  A    between atoms: _312  and  _314
REMARK  121  A    between atoms: _314  and  _315
REMARK  122  A    between atoms: _314  and  _317
REMARK  123  A    between atoms: _317  and  _318
REMARK  124  A    between atoms: _321  and  _323
REMARK  125  A    between atoms: _323  and  _324
REMARK  126  A    between atoms: _323  and  _326
REMARK  127  A    between atoms: _326  and  _327
REMARK  128  A    between atoms: _332  and  _334
REMARK  129  A    between atoms: _334  and  _335
REMARK  130  A    between atoms: _334  and  _337
REMARK  131  A    between atoms: _337  and  _338
REMARK  132  A    between atoms: _338  and  _339
REMARK  133  A    between atoms: _344  and  _346
REMARK  134  A    between atoms: _346  and  _347
REMARK  135  A    between atoms: _346  and  _349
REMARK  136  A    between atoms: _349  and  _350
REMARK  137  A    between atoms: _360  and  _362
REMARK  138  A    between atoms: _362  and  _363
REMARK  139  A    between atoms: _365  and  _367
REMARK  140  A    between atoms: _367  and  _368
REMARK  141  A    between atoms: _367  and  _370
REMARK  142  A    between atoms: _370  and  _371
REMARK                            x       y       z     vdW  Elec       q    Type
REMARK                         _______ _______ _______ _____ _____    ______ ____
ROOT
ATOM      1  CG  TYR A   1      27.683   0.595  48.760  0.00  0.00    -0.020 A 
ATOM      2  CD2 TYR A   1      28.746   0.761  49.656  0.00  0.00    -0.001 A 
ATOM      3  CE2 TYR A   1      30.041   1.126  49.206  0.00  0.00    +0.036 A 
ATOM      4  CZ  TYR A   1      30.252   1.343  47.850  0.00  0.00    +0.134 A 
ATOM      5  CE1 TYR A   1      29.209   1.213  46.945  0.00  0.00    +0.036 A 
ATOM      6  CD1 TYR A   1      27.922   0.849  47.403  0.00  0.00    -0.001 A 
ENDROOT
BRANCH   4   7
ATOM      7  OH  TYR A   1      31.486   1.707  47.419  0.00  0.00    -0.506 OA
ATOM      8  HH  TYR A   1      31.470   1.822  46.436  0.00  0.00    +0.292 HD
ENDBRANCH   4   7
BRANCH   1   9
ATOM      9  CB  TYR A   1      26.294   0.175  49.251  0.00  0.00    +0.051 C 
BRANCH   9  10
ATOM     10  CA  TYR A   1      26.212  -1.248  49.862  0.00  0.00    +0.137 C 
BRANCH  10  11
ATOM     11  N   TYR A   1      24.931  -1.435  50.517  0.00  0.00    -0.239 NA
ATOM     12  H   TYR A   1      24.345  -0.597  50.705  0.00  0.00    +0.142 HD
ENDBRANCH  10  11
BRANCH  10  13
ATOM     13  C   TYR A   1      27.280  -1.443  50.929  0.00  0.00    +0.224 C 
ATOM     14  O   TYR A   1      27.121  -0.980  52.039  0.00  0.00    -0.287 OA
ENDBRANCH  10  13
ENDBRANCH   9  10
ENDBRANCH   1   9
TORSDOF 5
REMARK  Name = ../refined-set-2016/2xib/2xib_pocket.pdb
REMARK  142 active torsions:
REMARK  status: ('A' for Active; 'I' for Inactive)
REMARK    1  A    between atoms: _1  and  _3
REMARK    2  A    between atoms: _3  and  _4
REMARK    3  A    between atoms: _3  and  _6
REMARK    4  A    between atoms: _6  and  _7
REMARK    5  A    between atoms: _13  and  _15
REMARK    6  A    between atoms: _15  and  _16
REMARK    7  A    between atoms: _15  and  _18
REMARK    8  A    between atoms: _18  and  _19
REMARK    9  A    between atoms: _24  and  _26
REMARK   10  A    between atoms: _26  and  _27
REMARK   11  A    between atoms: _26  and  _29
REMARK   12  A    between atoms: _29  and  _30
REMARK   13  A    between atoms: _35  and  _36
REMARK   14  A    between atoms: _38  and  _40
REMARK   15  A    between atoms: _40  and  _41
REMARK   16  A    between atoms: _44  and  _46
REMARK   17  A    between atoms: _46  and  _47
REMARK   18  A    between atoms: _50  and  _52
REMARK   19  A    between atoms: _52  and  _53
REMARK   20  A    between atoms: _52  and  _55
REMARK   21  A    between atoms: _55  and  _56
REMARK   22  A    between atoms: _56  and  _57
REMARK   23  A    between atoms: _60  and  _62
REMARK   24  A    between atoms: _62  and  _63
REMARK   25  A    between atoms: _62  and  _65
REMARK   26  A    between atoms: _65  and  _66
REMARK   27  A    between atoms: _76  and  _78
REMARK   28  A    between atoms: _78  and  _79
REMARK   29  A    between atoms: _78  and  _81
REMARK   30  A    between atoms: _81  and  _82
REMARK   31  A    between atoms: _85  and  _87
REMARK   32  A    between atoms: _87  and  _88
REMARK   33  A    between atoms: _87  and  _90
REMARK   34  A    between atoms: _90  and  _91
REMARK   35  A    between atoms: _91  and  _92
REMARK   36  A    between atoms: _92  and  _93
REMARK   37  A    between atoms: _93  and  _94
REMARK   38  A    between atoms: _98  and  _100
REMARK   39  A    between atoms: _100  and  _101
REMARK   40  A    between atoms: _100  and  _103
REMARK   41  A    between atoms: _103  and  _104
REMARK   42  A    between atoms: _109  and  _111
REMARK   43  A    between atoms: _111  and  _112
REMARK   44  A    between atoms: _111  and  _114
REMARK   45  A    between atoms: _114  and  _115
REMARK   46  A    between atoms: _120  and  _122
REMARK   47  A    between atoms: _122  and  _123
REMARK   48  A    between atoms: _122  and  _125
REMARK   49  A    between atoms: _125  and  _126
REMARK   50  A    between atoms: _126  and  _127
REMARK   51  A    between atoms: _130  and  _132
REMARK   52  A    between atoms: _132  and  _133
REMARK   53  A    between atoms: _132  and  _135
REMARK   54  A    between atoms: _135  and  _136
REMARK   55  A    between atoms: _141  and  _142
REMARK   56  A    between atoms: _144  and  _146
REMARK   57  A    between atoms: _146  and  _147
REMARK   58  A    between atoms: _146  and  _149
REMARK   59  A    between atoms: _149  and  _150
REMARK   60  A    between atoms: _152  and  _154
REMARK   61  A    between atoms: _154  and  _155
REMARK   62  A    between atoms: _154  and  _157
REMARK   63  A    between atoms: _157  and  _158
REMARK   64  A    between atoms: _158  and  _159
REMARK   65  A    between atoms: _161  and  _163
REMARK   66  A    between atoms: _163  and  _164
REMARK   67  A    between atoms: _163  and  _166
REMARK   68  A    between atoms: _166  and  _167
REMARK   69  A    between atoms: _177  and  _179
REMARK   70  A    between atoms: _179  and  _180
REMARK   71  A    between atoms: _179  and  _182
REMARK   72  A    between atoms: _182  and  _183
REMARK   73  A    between atoms: _193  and  _195
REMARK   74  A    between atoms: _195  and  _196
REMARK   75  A    between atoms: _195  and  _198
REMARK   76  A    between atoms: _198  and  _199
REMARK   77  A    between atoms: _205  and  _207
REMARK   78  A    between atoms: _207  and  _208
REMARK   79  A    between atoms: _207  and  _210
REMARK   80  A    between atoms: _210  and  _211
REMARK   81  A    between atoms: _214  and  _216
REMARK   82  A    between atoms: _216  and  _217
REMARK   83  A    between atoms: _219  and  _221
REMARK   84  A    between atoms: _221  and  _222
REMARK   85  A    between atoms: _221  and  _224
REMARK   86  A    between atoms: _224  and  _225
REMARK   87  A    between atoms: _228  and  _230
REMARK   88  A    between atoms: _230  and  _231
REMARK   89  A    between atoms: _230  and  _233
REMARK   90  A    between atoms: _233  and  _234
REMARK   91  A    between atoms: _244  and  _246
REMARK   92  A    between atoms: _246  and  _247
REMARK   93  A    between atoms: _246  and  _249
REMARK   94  A    between atoms: _249  and  _250
REMARK   95  A    between atoms: _250  and  _251
REMARK   96  A    between atoms: _251  and  _252
REMARK   97  A    between atoms: _261  and  _263
REMARK   98  A    between atoms: _263  and  _264
REMARK   99  A    between atoms: _263  and  _266
REMARK  100  A    between atoms: _266  and  _267
REMARK  101  A    between atoms: _269  and  _271
REMARK  102  A    between atoms: _271  and  _272
REMARK  103  A    between atoms: _271  and  _274
REMARK  104  A    between atoms: _274  and  _275
REMARK  105  A    between atoms: _275  and  _276
REMARK  106  A    between atoms: _279  and  _281
REMARK  107  A    between atoms: _281  and  _282
REMARK  108  A    between atoms: _281  and  _284
REMARK  109  A    between atoms: _284  and  _285
REMARK  110  A    between atoms: _285  and  _286
REMARK  111  A    between atoms: _286  and  _287
REMARK  112  A    between atoms: _296  and  _298
REMARK  113  A    between atoms: _298  and  _299
REMARK  114  A    between atoms: _298  and  _301
REMARK  115  A    between atoms: _303  and  _305
REMARK  116  A    between atoms: _305  and  _306
REMARK  117  A    between atoms: _305  and  _308
REMARK  118  A    between atoms: _308  and  _309
REMARK  119  A    between atoms: _309  and  _310
REMARK  120  A    between atoms: _312  and  _314
REMARK  121  A    between atoms: _314  and  _315
REMARK  122  A    between atoms: _314  and  _317
REMARK  123  A    between atoms: _317  and  _318
REMARK  124  A    between atoms: _321  and  _323
REMARK  125  A    between atoms: _323  and  _324
REMARK  126  A    between atoms: _323  and  _326
REMARK  127  A    between atoms: _326  and  _327
REMARK  128  A    between atoms: _332  and  _334
REMARK  129  A    between atoms: _334  and  _335
REMARK  130  A    between atoms: _334  and  _337
REMARK  131  A    between atoms: _337  and  _338
REMARK  132  A    between atoms: _338  and  _339
REMARK  133  A    between atoms: _344  and  _346
REMARK  134  A    between atoms: _346  and  _347
REMARK  135  A    between atoms: _346  and  _349
REMARK  136  A    between atoms: _349  and  _350
REMARK  137  A    between atoms: _360  and  _362
REMARK  138  A    between atoms: _362  and  _363
REMARK  139  A    between atoms: _365  and  _367
REMARK  140  A    between atoms: _367  and  _368
REMARK  141  A    between atoms: _367  and  _370
REMARK  142  A    between atoms: _370  and  _371
REMARK                            x       y       z     vdW  Elec       q    Type
REMARK                         _______ _______ _______ _____ _____    ______ ____
ROOT
ATOM      1  CA  SER A   1      33.018  -1.233  50.454  0.00  0.00    +0.163 C 
ENDROOT
BRANCH   1   2
ATOM      2  N   SER A   1      31.679  -1.273  51.045  0.00  0.00    -0.237 NA
ATOM      3  H   SER A   1      31.407  -0.540  51.730  0.00  0.00    +0.142 HD
ENDBRANCH   1   2
BRANCH   1   4
ATOM      4  CB  SER A   1      33.958  -2.100  51.250  0.00  0.00    +0.227 C 
ATOM      5  OG  SER A   1      34.184  -1.841  52.429  0.00  0.00    -0.287 OA
ENDBRANCH   1   4
BRANCH   1   6
ATOM      6  C   SER A   1      33.587   0.186  50.427  0.00  0.00    +0.162 C 
BRANCH   6   7
ATOM      7  O   SER A   1      34.892   0.168  49.879  0.00  0.00    -0.380 OA
ATOM      8  H   SER A   1      35.474  -0.409  50.435  0.00  0.00    +0.211 HD
ENDBRANCH   6   7
ENDBRANCH   1   6
TORSDOF 4
REMARK  Name = ../refined-set-2016/2xib/2xib_pocket.pdb
REMARK  142 active torsions:
REMARK  status: ('A' for Active; 'I' for Inactive)
REMARK    1  A    between atoms: _1  and  _3
REMARK    2  A    between atoms: _3  and  _4
REMARK    3  A    between atoms: _3  and  _6
REMARK    4  A    between atoms: _6  and  _7
REMARK    5  A    between atoms: _13  and  _15
REMARK    6  A    between atoms: _15  and  _16
REMARK    7  A    between atoms: _15  and  _18
REMARK    8  A    between atoms: _18  and  _19
REMARK    9  A    between atoms: _24  and  _26
REMARK   10  A    between atoms: _26  and  _27
REMARK   11  A    between atoms: _26  and  _29
REMARK   12  A    between atoms: _29  and  _30
REMARK   13  A    between atoms: _35  and  _36
REMARK   14  A    between atoms: _38  and  _40
REMARK   15  A    between atoms: _40  and  _41
REMARK   16  A    between atoms: _44  and  _46
REMARK   17  A    between atoms: _46  and  _47
REMARK   18  A    between atoms: _50  and  _52
REMARK   19  A    between atoms: _52  and  _53
REMARK   20  A    between atoms: _52  and  _55
REMARK   21  A    between atoms: _55  and  _56
REMARK   22  A    between atoms: _56  and  _57
REMARK   23  A    between atoms: _60  and  _62
REMARK   24  A    between atoms: _62  and  _63
REMARK   25  A    between atoms: _62  and  _65
REMARK   26  A    between atoms: _65  and  _66
REMARK   27  A    between atoms: _76  and  _78
REMARK   28  A    between atoms: _78  and  _79
REMARK   29  A    between atoms: _78  and  _81
REMARK   30  A    between atoms: _81  and  _82
REMARK   31  A    between atoms: _85  and  _87
REMARK   32  A    between atoms: _87  and  _88
REMARK   33  A    between atoms: _87  and  _90
REMARK   34  A    between atoms: _90  and  _91
REMARK   35  A    between atoms: _91  and  _92
REMARK   36  A    between atoms: _92  and  _93
REMARK   37  A    between atoms: _93  and  _94
REMARK   38  A    between atoms: _98  and  _100
REMARK   39  A    between atoms: _100  and  _101
REMARK   40  A    between atoms: _100  and  _103
REMARK   41  A    between atoms: _103  and  _104
REMARK   42  A    between atoms: _109  and  _111
REMARK   43  A    between atoms: _111  and  _112
REMARK   44  A    between atoms: _111  and  _114
REMARK   45  A    between atoms: _114  and  _115
REMARK   46  A    between atoms: _120  and  _122
REMARK   47  A    between atoms: _122  and  _123
REMARK   48  A    between atoms: _122  and  _125
REMARK   49  A    between atoms: _125  and  _126
REMARK   50  A    between atoms: _126  and  _127
REMARK   51  A    between atoms: _130  and  _132
REMARK   52  A    between atoms: _132  and  _133
REMARK   53  A    between atoms: _132  and  _135
REMARK   54  A    between atoms: _135  and  _136
REMARK   55  A    between atoms: _141  and  _142
REMARK   56  A    between atoms: _144  and  _146
REMARK   57  A    between atoms: _146  and  _147
REMARK   58  A    between atoms: _146  and  _149
REMARK   59  A    between atoms: _149  and  _150
REMARK   60  A    between atoms: _152  and  _154
REMARK   61  A    between atoms: _154  and  _155
REMARK   62  A    between atoms: _154  and  _157
REMARK   63  A    between atoms: _157  and  _158
REMARK   64  A    between atoms: _158  and  _159
REMARK   65  A    between atoms: _161  and  _163
REMARK   66  A    between atoms: _163  and  _164
REMARK   67  A    between atoms: _163  and  _166
REMARK   68  A    between atoms: _166  and  _167
REMARK   69  A    between atoms: _177  and  _179
REMARK   70  A    between atoms: _179  and  _180
REMARK   71  A    between atoms: _179  and  _182
REMARK   72  A    between atoms: _182  and  _183
REMARK   73  A    between atoms: _193  and  _195
REMARK   74  A    between atoms: _195  and  _196
REMARK   75  A    between atoms: _195  and  _198
REMARK   76  A    between atoms: _198  and  _199
REMARK   77  A    between atoms: _205  and  _207
REMARK   78  A    between atoms: _207  and  _208
REMARK   79  A    between atoms: _207  and  _210
REMARK   80  A    between atoms: _210  and  _211
REMARK   81  A    between atoms: _214  and  _216
REMARK   82  A    between atoms: _216  and  _217
REMARK   83  A    between atoms: _219  and  _221
REMARK   84  A    between atoms: _221  and  _222
REMARK   85  A    between atoms: _221  and  _224
REMARK   86  A    between atoms: _224  and  _225
REMARK   87  A    between atoms: _228  and  _230
REMARK   88  A    between atoms: _230  and  _231
REMARK   89  A    between atoms: _230  and  _233
REMARK   90  A    between atoms: _233  and  _234
REMARK   91  A    between atoms: _244  and  _246
REMARK   92  A    between atoms: _246  and  _247
REMARK   93  A    between atoms: _246  and  _249
REMARK   94  A    between atoms: _249  and  _250
REMARK   95  A    between atoms: _250  and  _251
REMARK   96  A    between atoms: _251  and  _252
REMARK   97  A    between atoms: _261  and  _263
REMARK   98  A    between atoms: _263  and  _264
REMARK   99  A    between atoms: _263  and  _266
REMARK  100  A    between atoms: _266  and  _267
REMARK  101  A    between atoms: _269  and  _271
REMARK  102  A    between atoms: _271  and  _272
REMARK  103  A    between atoms: _271  and  _274
REMARK  104  A    between atoms: _274  and  _275
REMARK  105  A    between atoms: _275  and  _276
REMARK  106  A    between atoms: _279  and  _281
REMARK  107  A    between atoms: _281  and  _282
REMARK  108  A    between atoms: _281  and  _284
REMARK  109  A    between atoms: _284  and  _285
REMARK  110  A    between atoms: _285  and  _286
REMARK  111  A    between atoms: _286  and  _287
REMARK  112  A    between atoms: _296  and  _298
REMARK  113  A    between atoms: _298  and  _299
REMARK  114  A    between atoms: _298  and  _301
REMARK  115  A    between atoms: _303  and  _305
REMARK  116  A    between atoms: _305  and  _306
REMARK  117  A    between atoms: _305  and  _308
REMARK  118  A    between atoms: _308  and  _309
REMARK  119  A    between atoms: _309  and  _310
REMARK  120  A    between atoms: _312  and  _314
REMARK  121  A    between atoms: _314  and  _315
REMARK  122  A    between atoms: _314  and  _317
REMARK  123  A    between atoms: _317  and  _318
REMARK  124  A    between atoms: _321  and  _323
REMARK  125  A    between atoms: _323  and  _324
REMARK  126  A    between atoms: _323  and  _326
REMARK  127  A    between atoms: _326  and  _327
REMARK  128  A    between atoms: _332  and  _334
REMARK  129  A    between atoms: _334  and  _335
REMARK  130  A    between atoms: _334  and  _337
REMARK  131  A    between atoms: _337  and  _338
REMARK  132  A    between atoms: _338  and  _339
REMARK  133  A    between atoms: _344  and  _346
REMARK  134  A    between atoms: _346  and  _347
REMARK  135  A    between atoms: _346  and  _349
REMARK  136  A    between atoms: _349  and  _350
REMARK  137  A    between atoms: _360  and  _362
REMARK  138  A    between atoms: _362  and  _363
REMARK  139  A    between atoms: _365  and  _367
REMARK  140  A    between atoms: _367  and  _368
REMARK  141  A    between atoms: _367  and  _370
REMARK  142  A    between atoms: _370  and  _371
REMARK                            x       y       z     vdW  Elec       q    Type
REMARK                         _______ _______ _______ _____ _____    ______ ____
ROOT
ATOM      1  CA  MET A   1      38.372  -1.475  50.491  0.00  0.00    +0.134 C 
ENDROOT
BRANCH   1   2
ATOM      2  N   MET A   1      37.263  -2.432  50.376  0.00  0.00    -0.239 NA
ATOM      3  H   MET A   1      36.819  -2.583  49.448  0.00  0.00    +0.142 HD
ENDBRANCH   1   2
BRANCH   1   4
ATOM      4  C   MET A   1      38.050  -0.444  51.575  0.00  0.00    +0.224 C 
ATOM      5  O   MET A   1      37.054   0.255  51.484  0.00  0.00    -0.287 OA
ENDBRANCH   1   4
BRANCH   1   6
ATOM      6  CB  MET A   1      38.606  -0.771  49.148  0.00  0.00    +0.037 C 
BRANCH   6   7
ATOM      7  CG  MET A   1      39.790   0.187  49.148  0.00  0.00    +0.059 C 
BRANCH   7   8
ATOM      8  SD  MET A   1      40.104   1.016  47.587  0.00  0.00    -0.139 S 
ATOM      9  CE  MET A   1      38.528   1.815  47.355  0.00  0.00    +0.069 C 
ENDBRANCH   7   8
ENDBRANCH   6   7
ENDBRANCH   1   6
TORSDOF 5
REMARK  Name = ../refined-set-2016/2xib/2xib_pocket.pdb
REMARK  142 active torsions:
REMARK  status: ('A' for Active; 'I' for Inactive)
REMARK    1  A    between atoms: _1  and  _3
REMARK    2  A    between atoms: _3  and  _4
REMARK    3  A    between atoms: _3  and  _6
REMARK    4  A    between atoms: _6  and  _7
REMARK    5  A    between atoms: _13  and  _15
REMARK    6  A    between atoms: _15  and  _16
REMARK    7  A    between atoms: _15  and  _18
REMARK    8  A    between atoms: _18  and  _19
REMARK    9  A    between atoms: _24  and  _26
REMARK   10  A    between atoms: _26  and  _27
REMARK   11  A    between atoms: _26  and  _29
REMARK   12  A    between atoms: _29  and  _30
REMARK   13  A    between atoms: _35  and  _36
REMARK   14  A    between atoms: _38  and  _40
REMARK   15  A    between atoms: _40  and  _41
REMARK   16  A    between atoms: _44  and  _46
REMARK   17  A    between atoms: _46  and  _47
REMARK   18  A    between atoms: _50  and  _52
REMARK   19  A    between atoms: _52  and  _53
REMARK   20  A    between atoms: _52  and  _55
REMARK   21  A    between atoms: _55  and  _56
REMARK   22  A    between atoms: _56  and  _57
REMARK   23  A    between atoms: _60  and  _62
REMARK   24  A    between atoms: _62  and  _63
REMARK   25  A    between atoms: _62  and  _65
REMARK   26  A    between atoms: _65  and  _66
REMARK   27  A    between atoms: _76  and  _78
REMARK   28  A    between atoms: _78  and  _79
REMARK   29  A    between atoms: _78  and  _81
REMARK   30  A    between atoms: _81  and  _82
REMARK   31  A    between atoms: _85  and  _87
REMARK   32  A    between atoms: _87  and  _88
REMARK   33  A    between atoms: _87  and  _90
REMARK   34  A    between atoms: _90  and  _91
REMARK   35  A    between atoms: _91  and  _92
REMARK   36  A    between atoms: _92  and  _93
REMARK   37  A    between atoms: _93  and  _94
REMARK   38  A    between atoms: _98  and  _100
REMARK   39  A    between atoms: _100  and  _101
REMARK   40  A    between atoms: _100  and  _103
REMARK   41  A    between atoms: _103  and  _104
REMARK   42  A    between atoms: _109  and  _111
REMARK   43  A    between atoms: _111  and  _112
REMARK   44  A    between atoms: _111  and  _114
REMARK   45  A    between atoms: _114  and  _115
REMARK   46  A    between atoms: _120  and  _122
REMARK   47  A    between atoms: _122  and  _123
REMARK   48  A    between atoms: _122  and  _125
REMARK   49  A    between atoms: _125  and  _126
REMARK   50  A    between atoms: _126  and  _127
REMARK   51  A    between atoms: _130  and  _132
REMARK   52  A    between atoms: _132  and  _133
REMARK   53  A    between atoms: _132  and  _135
REMARK   54  A    between atoms: _135  and  _136
REMARK   55  A    between atoms: _141  and  _142
REMARK   56  A    between atoms: _144  and  _146
REMARK   57  A    between atoms: _146  and  _147
REMARK   58  A    between atoms: _146  and  _149
REMARK   59  A    between atoms: _149  and  _150
REMARK   60  A    between atoms: _152  and  _154
REMARK   61  A    between atoms: _154  and  _155
REMARK   62  A    between atoms: _154  and  _157
REMARK   63  A    between atoms: _157  and  _158
REMARK   64  A    between atoms: _158  and  _159
REMARK   65  A    between atoms: _161  and  _163
REMARK   66  A    between atoms: _163  and  _164
REMARK   67  A    between atoms: _163  and  _166
REMARK   68  A    between atoms: _166  and  _167
REMARK   69  A    between atoms: _177  and  _179
REMARK   70  A    between atoms: _179  and  _180
REMARK   71  A    between atoms: _179  and  _182
REMARK   72  A    between atoms: _182  and  _183
REMARK   73  A    between atoms: _193  and  _195
REMARK   74  A    between atoms: _195  and  _196
REMARK   75  A    between atoms: _195  and  _198
REMARK   76  A    between atoms: _198  and  _199
REMARK   77  A    between atoms: _205  and  _207
REMARK   78  A    between atoms: _207  and  _208
REMARK   79  A    between atoms: _207  and  _210
REMARK   80  A    between atoms: _210  and  _211
REMARK   81  A    between atoms: _214  and  _216
REMARK   82  A    between atoms: _216  and  _217
REMARK   83  A    between atoms: _219  and  _221
REMARK   84  A    between atoms: _221  and  _222
REMARK   85  A    between atoms: _221  and  _224
REMARK   86  A    between atoms: _224  and  _225
REMARK   87  A    between atoms: _228  and  _230
REMARK   88  A    between atoms: _230  and  _231
REMARK   89  A    between atoms: _230  and  _233
REMARK   90  A    between atoms: _233  and  _234
REMARK   91  A    between atoms: _244  and  _246
REMARK   92  A    between atoms: _246  and  _247
REMARK   93  A    between atoms: _246  and  _249
REMARK   94  A    between atoms: _249  and  _250
REMARK   95  A    between atoms: _250  and  _251
REMARK   96  A    between atoms: _251  and  _252
REMARK   97  A    between atoms: _261  and  _263
REMARK   98  A    between atoms: _263  and  _264
REMARK   99  A    between atoms: _263  and  _266
REMARK  100  A    between atoms: _266  and  _267
REMARK  101  A    between atoms: _269  and  _271
REMARK  102  A    between atoms: _271  and  _272
REMARK  103  A    between atoms: _271  and  _274
REMARK  104  A    between atoms: _274  and  _275
REMARK  105  A    between atoms: _275  and  _276
REMARK  106  A    between atoms: _279  and  _281
REMARK  107  A    between atoms: _281  and  _282
REMARK  108  A    between atoms: _281  and  _284
REMARK  109  A    between atoms: _284  and  _285
REMARK  110  A    between atoms: _285  and  _286
REMARK  111  A    between atoms: _286  and  _287
REMARK  112  A    between atoms: _296  and  _298
REMARK  113  A    between atoms: _298  and  _299
REMARK  114  A    between atoms: _298  and  _301
REMARK  115  A    between atoms: _303  and  _305
REMARK  116  A    between atoms: _305  and  _306
REMARK  117  A    between atoms: _305  and  _308
REMARK  118  A    between atoms: _308  and  _309
REMARK  119  A    between atoms: _309  and  _310
REMARK  120  A    between atoms: _312  and  _314
REMARK  121  A    between atoms: _314  and  _315
REMARK  122  A    between atoms: _314  and  _317
REMARK  123  A    between atoms: _317  and  _318
REMARK  124  A    between atoms: _321  and  _323
REMARK  125  A    between atoms: _323  and  _324
REMARK  126  A    between atoms: _323  and  _326
REMARK  127  A    between atoms: _326  and  _327
REMARK  128  A    between atoms: _332  and  _334
REMARK  129  A    between atoms: _334  and  _335
REMARK  130  A    between atoms: _334  and  _337
REMARK  131  A    between atoms: _337  and  _338
REMARK  132  A    between atoms: _338  and  _339
REMARK  133  A    between atoms: _344  and  _346
REMARK  134  A    between atoms: _346  and  _347
REMARK  135  A    between atoms: _346  and  _349
REMARK  136  A    between atoms: _349  and  _350
REMARK  137  A    between atoms: _360  and  _362
REMARK  138  A    between atoms: _362  and  _363
REMARK  139  A    between atoms: _365  and  _367
REMARK  140  A    between atoms: _367  and  _368
REMARK  141  A    between atoms: _367  and  _370
REMARK  142  A    between atoms: _370  and  _371
REMARK                            x       y       z     vdW  Elec       q    Type
REMARK                         _______ _______ _______ _____ _____    ______ ____
ROOT
ATOM      1  CG  TRP A   1      40.573   4.723  51.531  0.00  0.00    -0.002 A 
ATOM      2  CD1 TRP A   1      41.191   3.760  50.788  0.00  0.00    +0.068 A 
ATOM      3  NE1 TRP A   1      40.909   3.926  49.459  0.00  0.00    -0.352 N 
ATOM      4  CE2 TRP A   1      40.090   5.014  49.313  0.00  0.00    +0.056 A 
ATOM      5  CZ2 TRP A   1      39.531   5.569  48.158  0.00  0.00    +0.017 A 
ATOM      6  CH2 TRP A   1      38.724   6.678  48.311  0.00  0.00    +0.001 A 
ATOM      7  CZ3 TRP A   1      38.483   7.246  49.583  0.00  0.00    +0.000 A 
ATOM      8  CE3 TRP A   1      39.037   6.675  50.735  0.00  0.00    +0.001 A 
ATOM      9  HE1 TRP A   1      41.259   3.324  48.686  0.00  0.00    +0.166 HD
ATOM     10  CD2 TRP A   1      39.853   5.542  50.603  0.00  0.00    +0.013 A 
ENDROOT
BRANCH   1  11
ATOM     11  CB  TRP A   1      40.635   4.892  53.020  0.00  0.00    +0.053 C 
BRANCH  11  12
ATOM     12  CA  TRP A   1      40.890   3.598  53.839  0.00  0.00    +0.137 C 
BRANCH  12  13
ATOM     13  N   TRP A   1      39.776   2.661  53.703  0.00  0.00    -0.239 NA
ATOM     14  H   TRP A   1      38.885   3.016  53.301  0.00  0.00    +0.142 HD
ENDBRANCH  12  13
BRANCH  12  15
ATOM     15  C   TRP A   1      41.132   4.024  55.286  0.00  0.00    +0.224 C 
ATOM     16  O   TRP A   1      42.121   4.709  55.551  0.00  0.00    -0.287 OA
ENDBRANCH  12  15
ENDBRANCH  11  12
ENDBRANCH   1  11
TORSDOF 4
REMARK  Name = ../refined-set-2016/2xib/2xib_pocket.pdb
REMARK  142 active torsions:
REMARK  status: ('A' for Active; 'I' for Inactive)
REMARK    1  A    between atoms: _1  and  _3
REMARK    2  A    between atoms: _3  and  _4
REMARK    3  A    between atoms: _3  and  _6
REMARK    4  A    between atoms: _6  and  _7
REMARK    5  A    between atoms: _13  and  _15
REMARK    6  A    between atoms: _15  and  _16
REMARK    7  A    between atoms: _15  and  _18
REMARK    8  A    between atoms: _18  and  _19
REMARK    9  A    between atoms: _24  and  _26
REMARK   10  A    between atoms: _26  and  _27
REMARK   11  A    between atoms: _26  and  _29
REMARK   12  A    between atoms: _29  and  _30
REMARK   13  A    between atoms: _35  and  _36
REMARK   14  A    between atoms: _38  and  _40
REMARK   15  A    between atoms: _40  and  _41
REMARK   16  A    between atoms: _44  and  _46
REMARK   17  A    between atoms: _46  and  _47
REMARK   18  A    between atoms: _50  and  _52
REMARK   19  A    between atoms: _52  and  _53
REMARK   20  A    between atoms: _52  and  _55
REMARK   21  A    between atoms: _55  and  _56
REMARK   22  A    between atoms: _56  and  _57
REMARK   23  A    between atoms: _60  and  _62
REMARK   24  A    between atoms: _62  and  _63
REMARK   25  A    between atoms: _62  and  _65
REMARK   26  A    between atoms: _65  and  _66
REMARK   27  A    between atoms: _76  and  _78
REMARK   28  A    between atoms: _78  and  _79
REMARK   29  A    between atoms: _78  and  _81
REMARK   30  A    between atoms: _81  and  _82
REMARK   31  A    between atoms: _85  and  _87
REMARK   32  A    between atoms: _87  and  _88
REMARK   33  A    between atoms: _87  and  _90
REMARK   34  A    between atoms: _90  and  _91
REMARK   35  A    between atoms: _91  and  _92
REMARK   36  A    between atoms: _92  and  _93
REMARK   37  A    between atoms: _93  and  _94
REMARK   38  A    between atoms: _98  and  _100
REMARK   39  A    between atoms: _100  and  _101
REMARK   40  A    between atoms: _100  and  _103
REMARK   41  A    between atoms: _103  and  _104
REMARK   42  A    between atoms: _109  and  _111
REMARK   43  A    between atoms: _111  and  _112
REMARK   44  A    between atoms: _111  and  _114
REMARK   45  A    between atoms: _114  and  _115
REMARK   46  A    between atoms: _120  and  _122
REMARK   47  A    between atoms: _122  and  _123
REMARK   48  A    between atoms: _122  and  _125
REMARK   49  A    between atoms: _125  and  _126
REMARK   50  A    between atoms: _126  and  _127
REMARK   51  A    between atoms: _130  and  _132
REMARK   52  A    between atoms: _132  and  _133
REMARK   53  A    between atoms: _132  and  _135
REMARK   54  A    between atoms: _135  and  _136
REMARK   55  A    between atoms: _141  and  _142
REMARK   56  A    between atoms: _144  and  _146
REMARK   57  A    between atoms: _146  and  _147
REMARK   58  A    between atoms: _146  and  _149
REMARK   59  A    between atoms: _149  and  _150
REMARK   60  A    between atoms: _152  and  _154
REMARK   61  A    between atoms: _154  and  _155
REMARK   62  A    between atoms: _154  and  _157
REMARK   63  A    between atoms: _157  and  _158
REMARK   64  A    between atoms: _158  and  _159
REMARK   65  A    between atoms: _161  and  _163
REMARK   66  A    between atoms: _163  and  _164
REMARK   67  A    between atoms: _163  and  _166
REMARK   68  A    between atoms: _166  and  _167
REMARK   69  A    between atoms: _177  and  _179
REMARK   70  A    between atoms: _179  and  _180
REMARK   71  A    between atoms: _179  and  _182
REMARK   72  A    between atoms: _182  and  _183
REMARK   73  A    between atoms: _193  and  _195
REMARK   74  A    between atoms: _195  and  _196
REMARK   75  A    between atoms: _195  and  _198
REMARK   76  A    between atoms: _198  and  _199
REMARK   77  A    between atoms: _205  and  _207
REMARK   78  A    between atoms: _207  and  _208
REMARK   79  A    between atoms: _207  and  _210
REMARK   80  A    between atoms: _210  and  _211
REMARK   81  A    between atoms: _214  and  _216
REMARK   82  A    between atoms: _216  and  _217
REMARK   83  A    between atoms: _219  and  _221
REMARK   84  A    between atoms: _221  and  _222
REMARK   85  A    between atoms: _221  and  _224
REMARK   86  A    between atoms: _224  and  _225
REMARK   87  A    between atoms: _228  and  _230
REMARK   88  A    between atoms: _230  and  _231
REMARK   89  A    between atoms: _230  and  _233
REMARK   90  A    between atoms: _233  and  _234
REMARK   91  A    between atoms: _244  and  _246
REMARK   92  A    between atoms: _246  and  _247
REMARK   93  A    between atoms: _246  and  _249
REMARK   94  A    between atoms: _249  and  _250
REMARK   95  A    between atoms: _250  and  _251
REMARK   96  A    between atoms: _251  and  _252
REMARK   97  A    between atoms: _261  and  _263
REMARK   98  A    between atoms: _263  and  _264
REMARK   99  A    between atoms: _263  and  _266
REMARK  100  A    between atoms: _266  and  _267
REMARK  101  A    between atoms: _269  and  _271
REMARK  102  A    between atoms: _271  and  _272
REMARK  103  A    between atoms: _271  and  _274
REMARK  104  A    between atoms: _274  and  _275
REMARK  105  A    between atoms: _275  and  _276
REMARK  106  A    between atoms: _279  and  _281
REMARK  107  A    between atoms: _281  and  _282
REMARK  108  A    between atoms: _281  and  _284
REMARK  109  A    between atoms: _284  and  _285
REMARK  110  A    between atoms: _285  and  _286
REMARK  111  A    between atoms: _286  and  _287
REMARK  112  A    between atoms: _296  and  _298
REMARK  113  A    between atoms: _298  and  _299
REMARK  114  A    between atoms: _298  and  _301
REMARK  115  A    between atoms: _303  and  _305
REMARK  116  A    between atoms: _305  and  _306
REMARK  117  A    between atoms: _305  and  _308
REMARK  118  A    between atoms: _308  and  _309
REMARK  119  A    between atoms: _309  and  _310
REMARK  120  A    between atoms: _312  and  _314
REMARK  121  A    between atoms: _314  and  _315
REMARK  122  A    between atoms: _314  and  _317
REMARK  123  A    between atoms: _317  and  _318
REMARK  124  A    between atoms: _321  and  _323
REMARK  125  A    between atoms: _323  and  _324
REMARK  126  A    between atoms: _323  and  _326
REMARK  127  A    between atoms: _326  and  _327
REMARK  128  A    between atoms: _332  and  _334
REMARK  129  A    between atoms: _334  and  _335
REMARK  130  A    between atoms: _334  and  _337
REMARK  131  A    between atoms: _337  and  _338
REMARK  132  A    between atoms: _338  and  _339
REMARK  133  A    between atoms: _344  and  _346
REMARK  134  A    between atoms: _346  and  _347
REMARK  135  A    between atoms: _346  and  _349
REMARK  136  A    between atoms: _349  and  _350
REMARK  137  A    between atoms: _360  and  _362
REMARK  138  A    between atoms: _362  and  _363
REMARK  139  A    between atoms: _365  and  _367
REMARK  140  A    between atoms: _367  and  _368
REMARK  141  A    between atoms: _367  and  _370
REMARK  142  A    between atoms: _370  and  _371
REMARK                            x       y       z     vdW  Elec       q    Type
REMARK                         _______ _______ _______ _____ _____    ______ ____
ROOT
ATOM      1  CA  ASP A   3      32.319  -2.704  46.138  0.00  0.00    +0.160 C 
ENDROOT
BRANCH   1   2
ATOM      2  C   ASP A   3      33.763  -2.675  46.664  0.00  0.00    +0.241 C 
ATOM      3  O   ASP A   3      34.046  -3.174  47.749  0.00  0.00    -0.273 OA
ATOM      4  N   GLY A   4      34.661  -2.083  45.889  0.00  0.00    -0.295 N 
ATOM      5  H   GLY A   4      34.370  -1.758  44.945  0.00  0.00    +0.150 HD
BRANCH   4   6
ATOM      6  CA  GLY A   4      36.043  -1.869  46.310  0.00  0.00    +0.176 C 
BRANCH   6   7
ATOM      7  C   GLY A   4      36.737  -3.197  46.501  0.00  0.00    +0.243 C 
ATOM      8  O   GLY A   4      37.499  -3.375  47.451  0.00  0.00    -0.273 OA
ATOM      9  N   THR A   5      36.487  -4.126  45.585  0.00  0.00    -0.295 N 
ATOM     10  H   THR A   5      35.916  -3.867  44.755  0.00  0.00    +0.150 HD
BRANCH   9  11
ATOM     11  CA  THR A   5      36.983  -5.501  45.696  0.00  0.00    +0.176 C 
BRANCH  11  12
ATOM     12  C   THR A   5      37.996  -5.833  44.613  0.00  0.00    +0.243 C 
ATOM     13  O   THR A   5      38.338  -6.991  44.442  0.00  0.00    -0.273 OA
ATOM     14  N   TRP A   6      38.499  -4.820  43.909  0.00  0.00    -0.298 N 
ATOM     15  H   TRP A   6      38.292  -3.847  44.213  0.00  0.00    +0.150 HD
BRANCH  14  16
ATOM     16  CA  TRP A   6      39.339  -5.026  42.714  0.00  0.00    +0.141 C 
BRANCH  16  17
ATOM     17  C   TRP A   6      40.848  -5.085  42.984  0.00  0.00    +0.227 C 
ATOM     18  O   TRP A   6      41.617  -5.392  42.064  0.00  0.00    -0.286 OA
ENDBRANCH  16  17
BRANCH  16  19
ATOM     19  CB  TRP A   6      39.073  -3.912  41.655  0.00  0.00    +0.056 C 
BRANCH  19  20
ATOM     20  CG  TRP A   6      39.133  -2.540  42.255  0.00  0.00    -0.002 A 
ATOM     21  CD1 TRP A   6      40.251  -1.875  42.670  0.00  0.00    +0.068 A 
ATOM     22  NE1 TRP A   6      39.900  -0.670  43.234  0.00  0.00    -0.352 N 
ATOM     23  HE1 TRP A   6      40.560   0.025  43.636  0.00  0.00    +0.166 HD
ATOM     24  CE2 TRP A   6      38.536  -0.537  43.178  0.00  0.00    +0.056 A 
ATOM     25  CZ2 TRP A   6      37.711   0.509  43.606  0.00  0.00    +0.017 A 
ATOM     26  CH2 TRP A   6      36.359   0.360  43.415  0.00  0.00    +0.001 A 
ATOM     27  CZ3 TRP A   6      35.831  -0.782  42.817  0.00  0.00    +0.000 A 
ATOM     28  CE3 TRP A   6      36.650  -1.820  42.398  0.00  0.00    +0.001 A 
ATOM     29  CD2 TRP A   6      38.022  -1.708  42.583  0.00  0.00    +0.013 A 
ENDBRANCH  19  20
ENDBRANCH  16  19
ENDBRANCH  14  16
ENDBRANCH  11  12
BRANCH  11  30
ATOM     30  CB  THR A   5      35.822  -6.499  45.556  0.00  0.00    +0.137 C 
ATOM     31  CG2 THR A   5      34.935  -6.499  46.791  0.00  0.00    +0.034 C 
BRANCH  30  32
ATOM     32  OG1 THR A   5      35.034  -6.136  44.411  0.00  0.00    -0.382 OA
ATOM     33  HG1 THR A   5      34.283  -6.774  44.313  0.00  0.00    +0.210 HD
ENDBRANCH  30  32
ENDBRANCH  11  30
ENDBRANCH   9  11
ENDBRANCH   6   7
ENDBRANCH   4   6
ENDBRANCH   1   2
BRANCH   1  35
ATOM     34  C   PHE A   2      30.566  -4.384  46.501  0.00  0.00    +0.241 C 
ATOM     35  N   ASP A   3      31.530  -3.590  46.971  0.00  0.00    -0.297 N 
ATOM     36  H   ASP A   3      31.726  -3.608  47.992  0.00  0.00    +0.150 HD
ATOM     37  O   PHE A   2      30.226  -4.466  45.301  0.00  0.00    -0.273 OA
BRANCH  34  38
ATOM     38  CA  PHE A   2      29.903  -5.223  47.550  0.00  0.00    +0.153 C 
BRANCH  38  41
ATOM     39  C   TRP A   1      27.587  -4.523  47.569  0.00  0.00    +0.239 C 
ATOM     40  O   TRP A   1      27.839  -3.441  48.107  0.00  0.00    -0.274 OA
ATOM     41  N   PHE A   2      28.498  -5.429  47.285  0.00  0.00    -0.297 N 
ATOM     42  H   PHE A   2      28.196  -6.326  46.854  0.00  0.00    +0.150 HD
BRANCH  39  43
ATOM     43  CA  TRP A   1      26.172  -4.912  47.214  0.00  0.00    +0.149 C 
BRANCH  43  44
ATOM     44  N   TRP A   1      25.506  -5.353  48.429  0.00  0.00    -0.238 NA
ATOM     45  H   TRP A   1      25.203  -4.636  49.118  0.00  0.00    +0.142 HD
ENDBRANCH  43  44
BRANCH  43  46
ATOM     46  CB  TRP A   1      25.458  -3.708  46.610  0.00  0.00    +0.054 C 
BRANCH  46  47
ATOM     47  CG  TRP A   1      25.798  -3.444  45.171  0.00  0.00    -0.002 A 
ATOM     48  CD2 TRP A   1      26.763  -2.527  44.660  0.00  0.00    +0.013 A 
ATOM     49  CE3 TRP A   1      27.667  -1.642  45.247  0.00  0.00    +0.001 A 
ATOM     50  CZ3 TRP A   1      28.486  -0.853  44.397  0.00  0.00    +0.000 A 
ATOM     51  CH2 TRP A   1      28.396  -0.954  43.008  0.00  0.00    +0.001 A 
ATOM     52  CZ2 TRP A   1      27.514  -1.819  42.414  0.00  0.00    +0.017 A 
ATOM     53  CE2 TRP A   1      26.692  -2.592  43.249  0.00  0.00    +0.056 A 
ATOM     54  NE1 TRP A   1      25.744  -3.530  42.929  0.00  0.00    -0.352 N 
ATOM     55  HE1 TRP A   1      25.476  -3.817  41.966  0.00  0.00    +0.166 HD
ATOM     56  CD1 TRP A   1      25.213  -4.023  44.081  0.00  0.00    +0.068 A 
ENDBRANCH  46  47
ENDBRANCH  43  46
ENDBRANCH  39  43
ENDBRANCH  38  41
BRANCH  38  57
ATOM     57  CB  PHE A   2      30.621  -6.559  47.682  0.00  0.00    +0.055 C 
BRANCH  57  58
ATOM     58  CG  PHE A   2      30.276  -7.277  48.941  0.00  0.00    -0.020 A 
ATOM     59  CD2 PHE A   2      30.998  -7.034  50.112  0.00  0.00    -0.004 A 
ATOM     60  CE2 PHE A   2      30.667  -7.672  51.284  0.00  0.00    -0.000 A 
ATOM     61  CZ  PHE A   2      29.587  -8.569  51.311  0.00  0.00    -0.000 A 
ATOM     62  CE1 PHE A   2      28.864  -8.807  50.149  0.00  0.00    -0.000 A 
ATOM     63  CD1 PHE A   2      29.206  -8.156  48.983  0.00  0.00    -0.004 A 
ENDBRANCH  57  58
ENDBRANCH  38  57
ENDBRANCH  34  38
ENDBRANCH   1  35
BRANCH   1  64
ATOM     64  CB  ASP A   3      31.708  -1.304  46.177  0.00  0.00    +0.143 C 
BRANCH  64  65
ATOM     65  CG  ASP A   3      32.071  -0.458  44.966  0.00  0.00    +0.367 C 
ATOM     66  OD2 ASP A   3      31.821   0.753  45.022  0.00  0.00    -0.246 OA
ATOM     67  OD1 ASP A   3      32.582  -0.984  43.946  0.00  0.00    -0.246 OA
ENDBRANCH  64  65
ENDBRANCH   1  64
TORSDOF 22
REMARK  Name = ../refined-set-2016/2xib/2xib_pocket.pdb
REMARK  142 active torsions:
REMARK  status: ('A' for Active; 'I' for Inactive)
REMARK    1  A    between atoms: _1  and  _3
REMARK    2  A    between atoms: _3  and  _4
REMARK    3  A    between atoms: _3  and  _6
REMARK    4  A    between atoms: _6  and  _7
REMARK    5  A    between atoms: _13  and  _15
REMARK    6  A    between atoms: _15  and  _16
REMARK    7  A    between atoms: _15  and  _18
REMARK    8  A    between atoms: _18  and  _19
REMARK    9  A    between atoms: _24  and  _26
REMARK   10  A    between atoms: _26  and  _27
REMARK   11  A    between atoms: _26  and  _29
REMARK   12  A    between atoms: _29  and  _30
REMARK   13  A    between atoms: _35  and  _36
REMARK   14  A    between atoms: _38  and  _40
REMARK   15  A    between atoms: _40  and  _41
REMARK   16  A    between atoms: _44  and  _46
REMARK   17  A    between atoms: _46  and  _47
REMARK   18  A    between atoms: _50  and  _52
REMARK   19  A    between atoms: _52  and  _53
REMARK   20  A    between atoms: _52  and  _55
REMARK   21  A    between atoms: _55  and  _56
REMARK   22  A    between atoms: _56  and  _57
REMARK   23  A    between atoms: _60  and  _62
REMARK   24  A    between atoms: _62  and  _63
REMARK   25  A    between atoms: _62  and  _65
REMARK   26  A    between atoms: _65  and  _66
REMARK   27  A    between atoms: _76  and  _78
REMARK   28  A    between atoms: _78  and  _79
REMARK   29  A    between atoms: _78  and  _81
REMARK   30  A    between atoms: _81  and  _82
REMARK   31  A    between atoms: _85  and  _87
REMARK   32  A    between atoms: _87  and  _88
REMARK   33  A    between atoms: _87  and  _90
REMARK   34  A    between atoms: _90  and  _91
REMARK   35  A    between atoms: _91  and  _92
REMARK   36  A    between atoms: _92  and  _93
REMARK   37  A    between atoms: _93  and  _94
REMARK   38  A    between atoms: _98  and  _100
REMARK   39  A    between atoms: _100  and  _101
REMARK   40  A    between atoms: _100  and  _103
REMARK   41  A    between atoms: _103  and  _104
REMARK   42  A    between atoms: _109  and  _111
REMARK   43  A    between atoms: _111  and  _112
REMARK   44  A    between atoms: _111  and  _114
REMARK   45  A    between atoms: _114  and  _115
REMARK   46  A    between atoms: _120  and  _122
REMARK   47  A    between atoms: _122  and  _123
REMARK   48  A    between atoms: _122  and  _125
REMARK   49  A    between atoms: _125  and  _126
REMARK   50  A    between atoms: _126  and  _127
REMARK   51  A    between atoms: _130  and  _132
REMARK   52  A    between atoms: _132  and  _133
REMARK   53  A    between atoms: _132  and  _135
REMARK   54  A    between atoms: _135  and  _136
REMARK   55  A    between atoms: _141  and  _142
REMARK   56  A    between atoms: _144  and  _146
REMARK   57  A    between atoms: _146  and  _147
REMARK   58  A    between atoms: _146  and  _149
REMARK   59  A    between atoms: _149  and  _150
REMARK   60  A    between atoms: _152  and  _154
REMARK   61  A    between atoms: _154  and  _155
REMARK   62  A    between atoms: _154  and  _157
REMARK   63  A    between atoms: _157  and  _158
REMARK   64  A    between atoms: _158  and  _159
REMARK   65  A    between atoms: _161  and  _163
REMARK   66  A    between atoms: _163  and  _164
REMARK   67  A    between atoms: _163  and  _166
REMARK   68  A    between atoms: _166  and  _167
REMARK   69  A    between atoms: _177  and  _179
REMARK   70  A    between atoms: _179  and  _180
REMARK   71  A    between atoms: _179  and  _182
REMARK   72  A    between atoms: _182  and  _183
REMARK   73  A    between atoms: _193  and  _195
REMARK   74  A    between atoms: _195  and  _196
REMARK   75  A    between atoms: _195  and  _198
REMARK   76  A    between atoms: _198  and  _199
REMARK   77  A    between atoms: _205  and  _207
REMARK   78  A    between atoms: _207  and  _208
REMARK   79  A    between atoms: _207  and  _210
REMARK   80  A    between atoms: _210  and  _211
REMARK   81  A    between atoms: _214  and  _216
REMARK   82  A    between atoms: _216  and  _217
REMARK   83  A    between atoms: _219  and  _221
REMARK   84  A    between atoms: _221  and  _222
REMARK   85  A    between atoms: _221  and  _224
REMARK   86  A    between atoms: _224  and  _225
REMARK   87  A    between atoms: _228  and  _230
REMARK   88  A    between atoms: _230  and  _231
REMARK   89  A    between atoms: _230  and  _233
REMARK   90  A    between atoms: _233  and  _234
REMARK   91  A    between atoms: _244  and  _246
REMARK   92  A    between atoms: _246  and  _247
REMARK   93  A    between atoms: _246  and  _249
REMARK   94  A    between atoms: _249  and  _250
REMARK   95  A    between atoms: _250  and  _251
REMARK   96  A    between atoms: _251  and  _252
REMARK   97  A    between atoms: _261  and  _263
REMARK   98  A    between atoms: _263  and  _264
REMARK   99  A    between atoms: _263  and  _266
REMARK  100  A    between atoms: _266  and  _267
REMARK  101  A    between atoms: _269  and  _271
REMARK  102  A    between atoms: _271  and  _272
REMARK  103  A    between atoms: _271  and  _274
REMARK  104  A    between atoms: _274  and  _275
REMARK  105  A    between atoms: _275  and  _276
REMARK  106  A    between atoms: _279  and  _281
REMARK  107  A    between atoms: _281  and  _282
REMARK  108  A    between atoms: _281  and  _284
REMARK  109  A    between atoms: _284  and  _285
REMARK  110  A    between atoms: _285  and  _286
REMARK  111  A    between atoms: _286  and  _287
REMARK  112  A    between atoms: _296  and  _298
REMARK  113  A    between atoms: _298  and  _299
REMARK  114  A    between atoms: _298  and  _301
REMARK  115  A    between atoms: _303  and  _305
REMARK  116  A    between atoms: _305  and  _306
REMARK  117  A    between atoms: _305  and  _308
REMARK  118  A    between atoms: _308  and  _309
REMARK  119  A    between atoms: _309  and  _310
REMARK  120  A    between atoms: _312  and  _314
REMARK  121  A    between atoms: _314  and  _315
REMARK  122  A    between atoms: _314  and  _317
REMARK  123  A    between atoms: _317  and  _318
REMARK  124  A    between atoms: _321  and  _323
REMARK  125  A    between atoms: _323  and  _324
REMARK  126  A    between atoms: _323  and  _326
REMARK  127  A    between atoms: _326  and  _327
REMARK  128  A    between atoms: _332  and  _334
REMARK  129  A    between atoms: _334  and  _335
REMARK  130  A    between atoms: _334  and  _337
REMARK  131  A    between atoms: _337  and  _338
REMARK  132  A    between atoms: _338  and  _339
REMARK  133  A    between atoms: _344  and  _346
REMARK  134  A    between atoms: _346  and  _347
REMARK  135  A    between atoms: _346  and  _349
REMARK  136  A    between atoms: _349  and  _350
REMARK  137  A    between atoms: _360  and  _362
REMARK  138  A    between atoms: _362  and  _363
REMARK  139  A    between atoms: _365  and  _367
REMARK  140  A    between atoms: _367  and  _368
REMARK  141  A    between atoms: _367  and  _370
REMARK  142  A    between atoms: _370  and  _371
REMARK                            x       y       z     vdW  Elec       q    Type
REMARK                         _______ _______ _______ _____ _____    ______ ____
ROOT
ATOM      1  NE  ARG A   1      30.970  -3.484  41.251  0.00  0.00    -0.265 N 
ATOM      2  HE  ARG A   1      30.284  -4.166  40.869  0.00  0.00    +0.259 HD
ATOM      3  CZ  ARG A   1      31.028  -2.284  40.687  0.00  0.00    +0.342 C 
ATOM      4  NH2 ARG A   1      31.882  -1.343  41.126  0.00  0.00    -0.292 N 
ATOM      5 HH21 ARG A   1      32.516  -1.548  41.924  0.00  0.00    +0.255 HD
ATOM      6 HH22 ARG A   1      31.908  -0.410  40.667  0.00  0.00    +0.255 HD
ATOM      7  NH1 ARG A   1      30.210  -2.018  39.679  0.00  0.00    -0.292 N 
ATOM      8 HH11 ARG A   1      29.542  -2.742  39.347  0.00  0.00    +0.255 HD
ATOM      9 HH12 ARG A   1      30.236  -1.085  39.220  0.00  0.00    +0.255 HD
ENDROOT
BRANCH   1  10
ATOM     10  CD  ARG A   1      31.801  -3.911  42.368  0.00  0.00    +0.174 C 
BRANCH  10  11
ATOM     11  CG  ARG A   1      32.138  -5.365  42.286  0.00  0.00    +0.045 C 
BRANCH  11  12
ATOM     12  CB  ARG A   1      30.905  -6.245  42.319  0.00  0.00    +0.029 C 
BRANCH  12  13
ATOM     13  CA  ARG A   1      31.240  -7.720  42.245  0.00  0.00    +0.133 C 
BRANCH  13  14
ATOM     14  N   ARG A   1      30.028  -8.486  42.009  0.00  0.00    -0.239 NA
ATOM     15  H   ARG A   1      29.100  -8.017  42.040  0.00  0.00    +0.142 HD
ENDBRANCH  13  14
BRANCH  13  16
ATOM     16  C   ARG A   1      32.080  -8.173  43.468  0.00  0.00    +0.224 C 
ATOM     17  O   ARG A   1      33.291  -7.922  43.520  0.00  0.00    -0.287 OA
ENDBRANCH  13  16
ENDBRANCH  12  13
ENDBRANCH  11  12
ENDBRANCH  10  11
ENDBRANCH   1  10
TORSDOF 6
REMARK  Name = ../refined-set-2016/2xib/2xib_pocket.pdb
REMARK  142 active torsions:
REMARK  status: ('A' for Active; 'I' for Inactive)
REMARK    1  A    between atoms: _1  and  _3
REMARK    2  A    between atoms: _3  and  _4
REMARK    3  A    between atoms: _3  and  _6
REMARK    4  A    between atoms: _6  and  _7
REMARK    5  A    between atoms: _13  and  _15
REMARK    6  A    between atoms: _15  and  _16
REMARK    7  A    between atoms: _15  and  _18
REMARK    8  A    between atoms: _18  and  _19
REMARK    9  A    between atoms: _24  and  _26
REMARK   10  A    between atoms: _26  and  _27
REMARK   11  A    between atoms: _26  and  _29
REMARK   12  A    between atoms: _29  and  _30
REMARK   13  A    between atoms: _35  and  _36
REMARK   14  A    between atoms: _38  and  _40
REMARK   15  A    between atoms: _40  and  _41
REMARK   16  A    between atoms: _44  and  _46
REMARK   17  A    between atoms: _46  and  _47
REMARK   18  A    between atoms: _50  and  _52
REMARK   19  A    between atoms: _52  and  _53
REMARK   20  A    between atoms: _52  and  _55
REMARK   21  A    between atoms: _55  and  _56
REMARK   22  A    between atoms: _56  and  _57
REMARK   23  A    between atoms: _60  and  _62
REMARK   24  A    between atoms: _62  and  _63
REMARK   25  A    between atoms: _62  and  _65
REMARK   26  A    between atoms: _65  and  _66
REMARK   27  A    between atoms: _76  and  _78
REMARK   28  A    between atoms: _78  and  _79
REMARK   29  A    between atoms: _78  and  _81
REMARK   30  A    between atoms: _81  and  _82
REMARK   31  A    between atoms: _85  and  _87
REMARK   32  A    between atoms: _87  and  _88
REMARK   33  A    between atoms: _87  and  _90
REMARK   34  A    between atoms: _90  and  _91
REMARK   35  A    between atoms: _91  and  _92
REMARK   36  A    between atoms: _92  and  _93
REMARK   37  A    between atoms: _93  and  _94
REMARK   38  A    between atoms: _98  and  _100
REMARK   39  A    between atoms: _100  and  _101
REMARK   40  A    between atoms: _100  and  _103
REMARK   41  A    between atoms: _103  and  _104
REMARK   42  A    between atoms: _109  and  _111
REMARK   43  A    between atoms: _111  and  _112
REMARK   44  A    between atoms: _111  and  _114
REMARK   45  A    between atoms: _114  and  _115
REMARK   46  A    between atoms: _120  and  _122
REMARK   47  A    between atoms: _122  and  _123
REMARK   48  A    between atoms: _122  and  _125
REMARK   49  A    between atoms: _125  and  _126
REMARK   50  A    between atoms: _126  and  _127
REMARK   51  A    between atoms: _130  and  _132
REMARK   52  A    between atoms: _132  and  _133
REMARK   53  A    between atoms: _132  and  _135
REMARK   54  A    between atoms: _135  and  _136
REMARK   55  A    between atoms: _141  and  _142
REMARK   56  A    between atoms: _144  and  _146
REMARK   57  A    between atoms: _146  and  _147
REMARK   58  A    between atoms: _146  and  _149
REMARK   59  A    between atoms: _149  and  _150
REMARK   60  A    between atoms: _152  and  _154
REMARK   61  A    between atoms: _154  and  _155
REMARK   62  A    between atoms: _154  and  _157
REMARK   63  A    between atoms: _157  and  _158
REMARK   64  A    between atoms: _158  and  _159
REMARK   65  A    between atoms: _161  and  _163
REMARK   66  A    between atoms: _163  and  _164
REMARK   67  A    between atoms: _163  and  _166
REMARK   68  A    between atoms: _166  and  _167
REMARK   69  A    between atoms: _177  and  _179
REMARK   70  A    between atoms: _179  and  _180
REMARK   71  A    between atoms: _179  and  _182
REMARK   72  A    between atoms: _182  and  _183
REMARK   73  A    between atoms: _193  and  _195
REMARK   74  A    between atoms: _195  and  _196
REMARK   75  A    between atoms: _195  and  _198
REMARK   76  A    between atoms: _198  and  _199
REMARK   77  A    between atoms: _205  and  _207
REMARK   78  A    between atoms: _207  and  _208
REMARK   79  A    between atoms: _207  and  _210
REMARK   80  A    between atoms: _210  and  _211
REMARK   81  A    between atoms: _214  and  _216
REMARK   82  A    between atoms: _216  and  _217
REMARK   83  A    between atoms: _219  and  _221
REMARK   84  A    between atoms: _221  and  _222
REMARK   85  A    between atoms: _221  and  _224
REMARK   86  A    between atoms: _224  and  _225
REMARK   87  A    between atoms: _228  and  _230
REMARK   88  A    between atoms: _230  and  _231
REMARK   89  A    between atoms: _230  and  _233
REMARK   90  A    between atoms: _233  and  _234
REMARK   91  A    between atoms: _244  and  _246
REMARK   92  A    between atoms: _246  and  _247
REMARK   93  A    between atoms: _246  and  _249
REMARK   94  A    between atoms: _249  and  _250
REMARK   95  A    between atoms: _250  and  _251
REMARK   96  A    between atoms: _251  and  _252
REMARK   97  A    between atoms: _261  and  _263
REMARK   98  A    between atoms: _263  and  _264
REMARK   99  A    between atoms: _263  and  _266
REMARK  100  A    between atoms: _266  and  _267
REMARK  101  A    between atoms: _269  and  _271
REMARK  102  A    between atoms: _271  and  _272
REMARK  103  A    between atoms: _271  and  _274
REMARK  104  A    between atoms: _274  and  _275
REMARK  105  A    between atoms: _275  and  _276
REMARK  106  A    between atoms: _279  and  _281
REMARK  107  A    between atoms: _281  and  _282
REMARK  108  A    between atoms: _281  and  _284
REMARK  109  A    between atoms: _284  and  _285
REMARK  110  A    between atoms: _285  and  _286
REMARK  111  A    between atoms: _286  and  _287
REMARK  112  A    between atoms: _296  and  _298
REMARK  113  A    between atoms: _298  and  _299
REMARK  114  A    between atoms: _298  and  _301
REMARK  115  A    between atoms: _303  and  _305
REMARK  116  A    between atoms: _305  and  _306
REMARK  117  A    between atoms: _305  and  _308
REMARK  118  A    between atoms: _308  and  _309
REMARK  119  A    between atoms: _309  and  _310
REMARK  120  A    between atoms: _312  and  _314
REMARK  121  A    between atoms: _314  and  _315
REMARK  122  A    between atoms: _314  and  _317
REMARK  123  A    between atoms: _317  and  _318
REMARK  124  A    between atoms: _321  and  _323
REMARK  125  A    between atoms: _323  and  _324
REMARK  126  A    between atoms: _323  and  _326
REMARK  127  A    between atoms: _326  and  _327
REMARK  128  A    between atoms: _332  and  _334
REMARK  129  A    between atoms: _334  and  _335
REMARK  130  A    between atoms: _334  and  _337
REMARK  131  A    between atoms: _337  and  _338
REMARK  132  A    between atoms: _338  and  _339
REMARK  133  A    between atoms: _344  and  _346
REMARK  134  A    between atoms: _346  and  _347
REMARK  135  A    between atoms: _346  and  _349
REMARK  136  A    between atoms: _349  and  _350
REMARK  137  A    between atoms: _360  and  _362
REMARK  138  A    between atoms: _362  and  _363
REMARK  139  A    between atoms: _365  and  _367
REMARK  140  A    between atoms: _367  and  _368
REMARK  141  A    between atoms: _367  and  _370
REMARK  142  A    between atoms: _370  and  _371
REMARK                            x       y       z     vdW  Elec       q    Type
REMARK                         _______ _______ _______ _____ _____    ______ ____
ROOT
ATOM      1  CA  SER A   1      26.693  -5.770  38.678  0.00  0.00    +0.163 C 
ENDROOT
BRANCH   1   2
ATOM      2  N   SER A   1      26.700  -7.139  38.150  0.00  0.00    -0.237 NA
ATOM      3  H   SER A   1      27.610  -7.634  38.059  0.00  0.00    +0.142 HD
ENDBRANCH   1   2
BRANCH   1   4
ATOM      4  CB  SER A   1      27.923  -4.996  38.200  0.00  0.00    +0.227 C 
ATOM      5  OG  SER A   1      28.628  -4.374  38.991  0.00  0.00    -0.287 OA
ENDBRANCH   1   4
BRANCH   1   6
ATOM      6  C   SER A   1      26.705  -5.822  40.205  0.00  0.00    +0.162 C 
BRANCH   6   7
ATOM      7  O   SER A   1      27.861  -6.531  40.659  0.00  0.00    -0.380 OA
ATOM      8  H   SER A   1      28.676  -6.068  40.341  0.00  0.00    +0.211 HD
ENDBRANCH   6   7
ENDBRANCH   1   6
TORSDOF 4
REMARK  Name = ../refined-set-2016/2xib/2xib_pocket.pdb
REMARK  142 active torsions:
REMARK  status: ('A' for Active; 'I' for Inactive)
REMARK    1  A    between atoms: _1  and  _3
REMARK    2  A    between atoms: _3  and  _4
REMARK    3  A    between atoms: _3  and  _6
REMARK    4  A    between atoms: _6  and  _7
REMARK    5  A    between atoms: _13  and  _15
REMARK    6  A    between atoms: _15  and  _16
REMARK    7  A    between atoms: _15  and  _18
REMARK    8  A    between atoms: _18  and  _19
REMARK    9  A    between atoms: _24  and  _26
REMARK   10  A    between atoms: _26  and  _27
REMARK   11  A    between atoms: _26  and  _29
REMARK   12  A    between atoms: _29  and  _30
REMARK   13  A    between atoms: _35  and  _36
REMARK   14  A    between atoms: _38  and  _40
REMARK   15  A    between atoms: _40  and  _41
REMARK   16  A    between atoms: _44  and  _46
REMARK   17  A    between atoms: _46  and  _47
REMARK   18  A    between atoms: _50  and  _52
REMARK   19  A    between atoms: _52  and  _53
REMARK   20  A    between atoms: _52  and  _55
REMARK   21  A    between atoms: _55  and  _56
REMARK   22  A    between atoms: _56  and  _57
REMARK   23  A    between atoms: _60  and  _62
REMARK   24  A    between atoms: _62  and  _63
REMARK   25  A    between atoms: _62  and  _65
REMARK   26  A    between atoms: _65  and  _66
REMARK   27  A    between atoms: _76  and  _78
REMARK   28  A    between atoms: _78  and  _79
REMARK   29  A    between atoms: _78  and  _81
REMARK   30  A    between atoms: _81  and  _82
REMARK   31  A    between atoms: _85  and  _87
REMARK   32  A    between atoms: _87  and  _88
REMARK   33  A    between atoms: _87  and  _90
REMARK   34  A    between atoms: _90  and  _91
REMARK   35  A    between atoms: _91  and  _92
REMARK   36  A    between atoms: _92  and  _93
REMARK   37  A    between atoms: _93  and  _94
REMARK   38  A    between atoms: _98  and  _100
REMARK   39  A    between atoms: _100  and  _101
REMARK   40  A    between atoms: _100  and  _103
REMARK   41  A    between atoms: _103  and  _104
REMARK   42  A    between atoms: _109  and  _111
REMARK   43  A    between atoms: _111  and  _112
REMARK   44  A    between atoms: _111  and  _114
REMARK   45  A    between atoms: _114  and  _115
REMARK   46  A    between atoms: _120  and  _122
REMARK   47  A    between atoms: _122  and  _123
REMARK   48  A    between atoms: _122  and  _125
REMARK   49  A    between atoms: _125  and  _126
REMARK   50  A    between atoms: _126  and  _127
REMARK   51  A    between atoms: _130  and  _132
REMARK   52  A    between atoms: _132  and  _133
REMARK   53  A    between atoms: _132  and  _135
REMARK   54  A    between atoms: _135  and  _136
REMARK   55  A    between atoms: _141  and  _142
REMARK   56  A    between atoms: _144  and  _146
REMARK   57  A    between atoms: _146  and  _147
REMARK   58  A    between atoms: _146  and  _149
REMARK   59  A    between atoms: _149  and  _150
REMARK   60  A    between atoms: _152  and  _154
REMARK   61  A    between atoms: _154  and  _155
REMARK   62  A    between atoms: _154  and  _157
REMARK   63  A    between atoms: _157  and  _158
REMARK   64  A    between atoms: _158  and  _159
REMARK   65  A    between atoms: _161  and  _163
REMARK   66  A    between atoms: _163  and  _164
REMARK   67  A    between atoms: _163  and  _166
REMARK   68  A    between atoms: _166  and  _167
REMARK   69  A    between atoms: _177  and  _179
REMARK   70  A    between atoms: _179  and  _180
REMARK   71  A    between atoms: _179  and  _182
REMARK   72  A    between atoms: _182  and  _183
REMARK   73  A    between atoms: _193  and  _195
REMARK   74  A    between atoms: _195  and  _196
REMARK   75  A    between atoms: _195  and  _198
REMARK   76  A    between atoms: _198  and  _199
REMARK   77  A    between atoms: _205  and  _207
REMARK   78  A    between atoms: _207  and  _208
REMARK   79  A    between atoms: _207  and  _210
REMARK   80  A    between atoms: _210  and  _211
REMARK   81  A    between atoms: _214  and  _216
REMARK   82  A    between atoms: _216  and  _217
REMARK   83  A    between atoms: _219  and  _221
REMARK   84  A    between atoms: _221  and  _222
REMARK   85  A    between atoms: _221  and  _224
REMARK   86  A    between atoms: _224  and  _225
REMARK   87  A    between atoms: _228  and  _230
REMARK   88  A    between atoms: _230  and  _231
REMARK   89  A    between atoms: _230  and  _233
REMARK   90  A    between atoms: _233  and  _234
REMARK   91  A    between atoms: _244  and  _246
REMARK   92  A    between atoms: _246  and  _247
REMARK   93  A    between atoms: _246  and  _249
REMARK   94  A    between atoms: _249  and  _250
REMARK   95  A    between atoms: _250  and  _251
REMARK   96  A    between atoms: _251  and  _252
REMARK   97  A    between atoms: _261  and  _263
REMARK   98  A    between atoms: _263  and  _264
REMARK   99  A    between atoms: _263  and  _266
REMARK  100  A    between atoms: _266  and  _267
REMARK  101  A    between atoms: _269  and  _271
REMARK  102  A    between atoms: _271  and  _272
REMARK  103  A    between atoms: _271  and  _274
REMARK  104  A    between atoms: _274  and  _275
REMARK  105  A    between atoms: _275  and  _276
REMARK  106  A    between atoms: _279  and  _281
REMARK  107  A    between atoms: _281  and  _282
REMARK  108  A    between atoms: _281  and  _284
REMARK  109  A    between atoms: _284  and  _285
REMARK  110  A    between atoms: _285  and  _286
REMARK  111  A    between atoms: _286  and  _287
REMARK  112  A    between atoms: _296  and  _298
REMARK  113  A    between atoms: _298  and  _299
REMARK  114  A    between atoms: _298  and  _301
REMARK  115  A    between atoms: _303  and  _305
REMARK  116  A    between atoms: _305  and  _306
REMARK  117  A    between atoms: _305  and  _308
REMARK  118  A    between atoms: _308  and  _309
REMARK  119  A    between atoms: _309  and  _310
REMARK  120  A    between atoms: _312  and  _314
REMARK  121  A    between atoms: _314  and  _315
REMARK  122  A    between atoms: _314  and  _317
REMARK  123  A    between atoms: _317  and  _318
REMARK  124  A    between atoms: _321  and  _323
REMARK  125  A    between atoms: _323  and  _324
REMARK  126  A    between atoms: _323  and  _326
REMARK  127  A    between atoms: _326  and  _327
REMARK  128  A    between atoms: _332  and  _334
REMARK  129  A    between atoms: _334  and  _335
REMARK  130  A    between atoms: _334  and  _337
REMARK  131  A    between atoms: _337  and  _338
REMARK  132  A    between atoms: _338  and  _339
REMARK  133  A    between atoms: _344  and  _346
REMARK  134  A    between atoms: _346  and  _347
REMARK  135  A    between atoms: _346  and  _349
REMARK  136  A    between atoms: _349  and  _350
REMARK  137  A    between atoms: _360  and  _362
REMARK  138  A    between atoms: _362  and  _363
REMARK  139  A    between atoms: _365  and  _367
REMARK  140  A    between atoms: _367  and  _368
REMARK  141  A    between atoms: _367  and  _370
REMARK  142  A    between atoms: _370  and  _371
REMARK                            x       y       z     vdW  Elec       q    Type
REMARK                         _______ _______ _______ _____ _____    ______ ____
ROOT
ATOM      1  CA  ARG A   2      27.365   4.429  34.319  0.00  0.00    +0.137 C 
ENDROOT
BRANCH   1   3
ATOM      2  C   GLU A   1      28.281   2.435  35.390  0.00  0.00    +0.238 C 
ATOM      3  N   ARG A   2      27.291   3.308  35.267  0.00  0.00    -0.298 N 
ATOM      4  H   ARG A   2      26.441   3.197  35.856  0.00  0.00    +0.150 HD
ATOM      5  O   GLU A   1      29.346   2.540  34.760  0.00  0.00    -0.274 OA
BRANCH   2   6
ATOM      6  CA  GLU A   1      28.012   1.232  36.289  0.00  0.00    +0.145 C 
BRANCH   6   7
ATOM      7  N   GLU A   1      27.963   0.050  35.435  0.00  0.00    -0.238 NA
ATOM      8  H   GLU A   1      28.832  -0.241  34.943  0.00  0.00    +0.142 HD
ENDBRANCH   6   7
BRANCH   6   9
ATOM      9  CB  GLU A   1      29.108   1.028  37.344  0.00  0.00    +0.038 C 
BRANCH   9  10
ATOM     10  CG  GLU A   1      29.380   2.226  38.241  0.00  0.00    +0.116 C 
BRANCH  10  11
ATOM     11  CD  GLU A   1      30.391   1.911  39.336  0.00  0.00    +0.365 C 
ATOM     12  OE2 GLU A   1      30.144   0.966  40.119  0.00  0.00    -0.246 OA
ATOM     13  OE1 GLU A   1      31.434   2.600  39.411  0.00  0.00    -0.246 OA
ENDBRANCH  10  11
ENDBRANCH   9  10
ENDBRANCH   6   9
ENDBRANCH   2   6
ENDBRANCH   1   3
BRANCH   1  14
ATOM     14  C   ARG A   2      27.551   3.978  32.841  0.00  0.00    +0.227 C 
ATOM     15  O   ARG A   2      27.987   4.738  31.995  0.00  0.00    -0.286 OA
ENDBRANCH   1  14
BRANCH   1  16
ATOM     16  CB  ARG A   2      28.441   5.449  34.762  0.00  0.00    +0.031 C 
BRANCH  16  17
ATOM     17  CG  ARG A   2      28.217   5.976  36.187  0.00  0.00    +0.045 C 
BRANCH  17  18
ATOM     18  CD  ARG A   2      29.157   7.114  36.584  0.00  0.00    +0.174 C 
BRANCH  18  19
ATOM     19  NE  ARG A   2      30.562   6.732  36.421  0.00  0.00    -0.265 N 
ATOM     20  HE  ARG A   2      30.951   6.055  37.107  0.00  0.00    +0.259 HD
ATOM     21  CZ  ARG A   2      31.390   7.178  35.466  0.00  0.00    +0.342 C 
ATOM     22  NH2 ARG A   2      32.643   6.732  35.436  0.00  0.00    -0.292 N 
ATOM     23 HH21 ARG A   2      32.968   6.047  36.147  0.00  0.00    +0.255 HD
ATOM     24 HH22 ARG A   2      33.297   7.069  34.701  0.00  0.00    +0.255 HD
ATOM     25  NH1 ARG A   2      31.006   8.076  34.556  0.00  0.00    -0.292 N 
ATOM     26 HH11 ARG A   2      30.037   8.452  34.574  0.00  0.00    +0.255 HD
ATOM     27 HH12 ARG A   2      31.676   8.399  33.829  0.00  0.00    +0.255 HD
ENDBRANCH  18  19
ENDBRANCH  17  18
ENDBRANCH  16  17
ENDBRANCH   1  16
TORSDOF 11
REMARK  Name = ../refined-set-2016/2xib/2xib_pocket.pdb
REMARK  142 active torsions:
REMARK  status: ('A' for Active; 'I' for Inactive)
REMARK    1  A    between atoms: _1  and  _3
REMARK    2  A    between atoms: _3  and  _4
REMARK    3  A    between atoms: _3  and  _6
REMARK    4  A    between atoms: _6  and  _7
REMARK    5  A    between atoms: _13  and  _15
REMARK    6  A    between atoms: _15  and  _16
REMARK    7  A    between atoms: _15  and  _18
REMARK    8  A    between atoms: _18  and  _19
REMARK    9  A    between atoms: _24  and  _26
REMARK   10  A    between atoms: _26  and  _27
REMARK   11  A    between atoms: _26  and  _29
REMARK   12  A    between atoms: _29  and  _30
REMARK   13  A    between atoms: _35  and  _36
REMARK   14  A    between atoms: _38  and  _40
REMARK   15  A    between atoms: _40  and  _41
REMARK   16  A    between atoms: _44  and  _46
REMARK   17  A    between atoms: _46  and  _47
REMARK   18  A    between atoms: _50  and  _52
REMARK   19  A    between atoms: _52  and  _53
REMARK   20  A    between atoms: _52  and  _55
REMARK   21  A    between atoms: _55  and  _56
REMARK   22  A    between atoms: _56  and  _57
REMARK   23  A    between atoms: _60  and  _62
REMARK   24  A    between atoms: _62  and  _63
REMARK   25  A    between atoms: _62  and  _65
REMARK   26  A    between atoms: _65  and  _66
REMARK   27  A    between atoms: _76  and  _78
REMARK   28  A    between atoms: _78  and  _79
REMARK   29  A    between atoms: _78  and  _81
REMARK   30  A    between atoms: _81  and  _82
REMARK   31  A    between atoms: _85  and  _87
REMARK   32  A    between atoms: _87  and  _88
REMARK   33  A    between atoms: _87  and  _90
REMARK   34  A    between atoms: _90  and  _91
REMARK   35  A    between atoms: _91  and  _92
REMARK   36  A    between atoms: _92  and  _93
REMARK   37  A    between atoms: _93  and  _94
REMARK   38  A    between atoms: _98  and  _100
REMARK   39  A    between atoms: _100  and  _101
REMARK   40  A    between atoms: _100  and  _103
REMARK   41  A    between atoms: _103  and  _104
REMARK   42  A    between atoms: _109  and  _111
REMARK   43  A    between atoms: _111  and  _112
REMARK   44  A    between atoms: _111  and  _114
REMARK   45  A    between atoms: _114  and  _115
REMARK   46  A    between atoms: _120  and  _122
REMARK   47  A    between atoms: _122  and  _123
REMARK   48  A    between atoms: _122  and  _125
REMARK   49  A    between atoms: _125  and  _126
REMARK   50  A    between atoms: _126  and  _127
REMARK   51  A    between atoms: _130  and  _132
REMARK   52  A    between atoms: _132  and  _133
REMARK   53  A    between atoms: _132  and  _135
REMARK   54  A    between atoms: _135  and  _136
REMARK   55  A    between atoms: _141  and  _142
REMARK   56  A    between atoms: _144  and  _146
REMARK   57  A    between atoms: _146  and  _147
REMARK   58  A    between atoms: _146  and  _149
REMARK   59  A    between atoms: _149  and  _150
REMARK   60  A    between atoms: _152  and  _154
REMARK   61  A    between atoms: _154  and  _155
REMARK   62  A    between atoms: _154  and  _157
REMARK   63  A    between atoms: _157  and  _158
REMARK   64  A    between atoms: _158  and  _159
REMARK   65  A    between atoms: _161  and  _163
REMARK   66  A    between atoms: _163  and  _164
REMARK   67  A    between atoms: _163  and  _166
REMARK   68  A    between atoms: _166  and  _167
REMARK   69  A    between atoms: _177  and  _179
REMARK   70  A    between atoms: _179  and  _180
REMARK   71  A    between atoms: _179  and  _182
REMARK   72  A    between atoms: _182  and  _183
REMARK   73  A    between atoms: _193  and  _195
REMARK   74  A    between atoms: _195  and  _196
REMARK   75  A    between atoms: _195  and  _198
REMARK   76  A    between atoms: _198  and  _199
REMARK   77  A    between atoms: _205  and  _207
REMARK   78  A    between atoms: _207  and  _208
REMARK   79  A    between atoms: _207  and  _210
REMARK   80  A    between atoms: _210  and  _211
REMARK   81  A    between atoms: _214  and  _216
REMARK   82  A    between atoms: _216  and  _217
REMARK   83  A    between atoms: _219  and  _221
REMARK   84  A    between atoms: _221  and  _222
REMARK   85  A    between atoms: _221  and  _224
REMARK   86  A    between atoms: _224  and  _225
REMARK   87  A    between atoms: _228  and  _230
REMARK   88  A    between atoms: _230  and  _231
REMARK   89  A    between atoms: _230  and  _233
REMARK   90  A    between atoms: _233  and  _234
REMARK   91  A    between atoms: _244  and  _246
REMARK   92  A    between atoms: _246  and  _247
REMARK   93  A    between atoms: _246  and  _249
REMARK   94  A    between atoms: _249  and  _250
REMARK   95  A    between atoms: _250  and  _251
REMARK   96  A    between atoms: _251  and  _252
REMARK   97  A    between atoms: _261  and  _263
REMARK   98  A    between atoms: _263  and  _264
REMARK   99  A    between atoms: _263  and  _266
REMARK  100  A    between atoms: _266  and  _267
REMARK  101  A    between atoms: _269  and  _271
REMARK  102  A    between atoms: _271  and  _272
REMARK  103  A    between atoms: _271  and  _274
REMARK  104  A    between atoms: _274  and  _275
REMARK  105  A    between atoms: _275  and  _276
REMARK  106  A    between atoms: _279  and  _281
REMARK  107  A    between atoms: _281  and  _282
REMARK  108  A    between atoms: _281  and  _284
REMARK  109  A    between atoms: _284  and  _285
REMARK  110  A    between atoms: _285  and  _286
REMARK  111  A    between atoms: _286  and  _287
REMARK  112  A    between atoms: _296  and  _298
REMARK  113  A    between atoms: _298  and  _299
REMARK  114  A    between atoms: _298  and  _301
REMARK  115  A    between atoms: _303  and  _305
REMARK  116  A    between atoms: _305  and  _306
REMARK  117  A    between atoms: _305  and  _308
REMARK  118  A    between atoms: _308  and  _309
REMARK  119  A    between atoms: _309  and  _310
REMARK  120  A    between atoms: _312  and  _314
REMARK  121  A    between atoms: _314  and  _315
REMARK  122  A    between atoms: _314  and  _317
REMARK  123  A    between atoms: _317  and  _318
REMARK  124  A    between atoms: _321  and  _323
REMARK  125  A    between atoms: _323  and  _324
REMARK  126  A    between atoms: _323  and  _326
REMARK  127  A    between atoms: _326  and  _327
REMARK  128  A    between atoms: _332  and  _334
REMARK  129  A    between atoms: _334  and  _335
REMARK  130  A    between atoms: _334  and  _337
REMARK  131  A    between atoms: _337  and  _338
REMARK  132  A    between atoms: _338  and  _339
REMARK  133  A    between atoms: _344  and  _346
REMARK  134  A    between atoms: _346  and  _347
REMARK  135  A    between atoms: _346  and  _349
REMARK  136  A    between atoms: _349  and  _350
REMARK  137  A    between atoms: _360  and  _362
REMARK  138  A    between atoms: _362  and  _363
REMARK  139  A    between atoms: _365  and  _367
REMARK  140  A    between atoms: _367  and  _368
REMARK  141  A    between atoms: _367  and  _370
REMARK  142  A    between atoms: _370  and  _371
REMARK                            x       y       z     vdW  Elec       q    Type
REMARK                         _______ _______ _______ _____ _____    ______ ____
ROOT
ATOM      1  CA  MET A   2      23.741   5.375  37.415  0.00  0.00    +0.149 C 
ENDROOT
BRANCH   1   3
ATOM      2  C   CYS A   1      23.992   2.984  37.878  0.00  0.00    +0.239 C 
ATOM      3  N   MET A   2      23.394   4.149  38.141  0.00  0.00    -0.297 N 
ATOM      4  H   MET A   2      22.663   4.188  38.880  0.00  0.00    +0.150 HD
ATOM      5  O   CYS A   1      24.863   2.844  37.017  0.00  0.00    -0.274 OA
BRANCH   2   6
ATOM      6  CA  CYS A   1      23.498   1.780  38.669  0.00  0.00    +0.156 C 
BRANCH   6   7
ATOM      7  N   CYS A   1      23.592   0.606  37.827  0.00  0.00    -0.237 NA
ATOM      8  H   CYS A   1      24.486   0.406  37.334  0.00  0.00    +0.142 HD
ENDBRANCH   6   7
BRANCH   6   9
ATOM      9  CB  CYS A   1      24.296   1.590  39.957  0.00  0.00    +0.095 C 
ATOM     10  SG  CYS A   1      25.999   1.211  39.699  0.00  0.00    -0.080 S 
ENDBRANCH   6   9
ENDBRANCH   2   6
ENDBRANCH   1   3
BRANCH   1  11
ATOM     11  C   MET A   2      23.752   6.622  38.286  0.00  0.00    +0.241 C 
ATOM     12  O   MET A   2      23.019   6.729  39.277  0.00  0.00    -0.273 OA
ATOM     13  N   THR A   3      24.612   7.557  37.897  0.00  0.00    -0.296 N 
ATOM     14  H   THR A   3      25.278   7.331  37.131  0.00  0.00    +0.150 HD
BRANCH  13  15
ATOM     15  CA  THR A   3      24.664   8.879  38.492  0.00  0.00    +0.164 C 
BRANCH  15  16
ATOM     16  CB  THR A   3      26.119   9.377  38.587  0.00  0.00    +0.136 C 
ATOM     17  CG2 THR A   3      26.914   8.537  39.566  0.00  0.00    +0.034 C 
BRANCH  16  18
ATOM     18  OG1 THR A   3      26.744   9.307  37.304  0.00  0.00    -0.382 OA
ATOM     19  HG1 THR A   3      26.246   9.875  36.664  0.00  0.00    +0.210 HD
ENDBRANCH  16  18
ENDBRANCH  15  16
BRANCH  15  20
ATOM     20  C   THR A   3      23.810   9.857  37.665  0.00  0.00    +0.229 C 
ATOM     21  O   THR A   3      23.477   9.594  36.494  0.00  0.00    -0.286 OA
ENDBRANCH  15  20
ENDBRANCH  13  15
ENDBRANCH   1  11
BRANCH   1  22
ATOM     22  CB  MET A   2      22.792   5.594  36.238  0.00  0.00    +0.041 C 
BRANCH  22  23
ATOM     23  CG  MET A   2      21.356   5.788  36.615  0.00  0.00    +0.060 C 
BRANCH  23  24
ATOM     24  SD  MET A   2      20.312   6.266  35.237  0.00  0.00    -0.139 S 
ATOM     25  CE  MET A   2      20.921   7.923  34.945  0.00  0.00    +0.069 C 
ENDBRANCH  23  24
ENDBRANCH  22  23
ENDBRANCH   1  22
TORSDOF 12
REMARK  Name = ../refined-set-2016/2xib/2xib_pocket.pdb
REMARK  142 active torsions:
REMARK  status: ('A' for Active; 'I' for Inactive)
REMARK    1  A    between atoms: _1  and  _3
REMARK    2  A    between atoms: _3  and  _4
REMARK    3  A    between atoms: _3  and  _6
REMARK    4  A    between atoms: _6  and  _7
REMARK    5  A    between atoms: _13  and  _15
REMARK    6  A    between atoms: _15  and  _16
REMARK    7  A    between atoms: _15  and  _18
REMARK    8  A    between atoms: _18  and  _19
REMARK    9  A    between atoms: _24  and  _26
REMARK   10  A    between atoms: _26  and  _27
REMARK   11  A    between atoms: _26  and  _29
REMARK   12  A    between atoms: _29  and  _30
REMARK   13  A    between atoms: _35  and  _36
REMARK   14  A    between atoms: _38  and  _40
REMARK   15  A    between atoms: _40  and  _41
REMARK   16  A    between atoms: _44  and  _46
REMARK   17  A    between atoms: _46  and  _47
REMARK   18  A    between atoms: _50  and  _52
REMARK   19  A    between atoms: _52  and  _53
REMARK   20  A    between atoms: _52  and  _55
REMARK   21  A    between atoms: _55  and  _56
REMARK   22  A    between atoms: _56  and  _57
REMARK   23  A    between atoms: _60  and  _62
REMARK   24  A    between atoms: _62  and  _63
REMARK   25  A    between atoms: _62  and  _65
REMARK   26  A    between atoms: _65  and  _66
REMARK   27  A    between atoms: _76  and  _78
REMARK   28  A    between atoms: _78  and  _79
REMARK   29  A    between atoms: _78  and  _81
REMARK   30  A    between atoms: _81  and  _82
REMARK   31  A    between atoms: _85  and  _87
REMARK   32  A    between atoms: _87  and  _88
REMARK   33  A    between atoms: _87  and  _90
REMARK   34  A    between atoms: _90  and  _91
REMARK   35  A    between atoms: _91  and  _92
REMARK   36  A    between atoms: _92  and  _93
REMARK   37  A    between atoms: _93  and  _94
REMARK   38  A    between atoms: _98  and  _100
REMARK   39  A    between atoms: _100  and  _101
REMARK   40  A    between atoms: _100  and  _103
REMARK   41  A    between atoms: _103  and  _104
REMARK   42  A    between atoms: _109  and  _111
REMARK   43  A    between atoms: _111  and  _112
REMARK   44  A    between atoms: _111  and  _114
REMARK   45  A    between atoms: _114  and  _115
REMARK   46  A    between atoms: _120  and  _122
REMARK   47  A    between atoms: _122  and  _123
REMARK   48  A    between atoms: _122  and  _125
REMARK   49  A    between atoms: _125  and  _126
REMARK   50  A    between atoms: _126  and  _127
REMARK   51  A    between atoms: _130  and  _132
REMARK   52  A    between atoms: _132  and  _133
REMARK   53  A    between atoms: _132  and  _135
REMARK   54  A    between atoms: _135  and  _136
REMARK   55  A    between atoms: _141  and  _142
REMARK   56  A    between atoms: _144  and  _146
REMARK   57  A    between atoms: _146  and  _147
REMARK   58  A    between atoms: _146  and  _149
REMARK   59  A    between atoms: _149  and  _150
REMARK   60  A    between atoms: _152  and  _154
REMARK   61  A    between atoms: _154  and  _155
REMARK   62  A    between atoms: _154  and  _157
REMARK   63  A    between atoms: _157  and  _158
REMARK   64  A    between atoms: _158  and  _159
REMARK   65  A    between atoms: _161  and  _163
REMARK   66  A    between atoms: _163  and  _164
REMARK   67  A    between atoms: _163  and  _166
REMARK   68  A    between atoms: _166  and  _167
REMARK   69  A    between atoms: _177  and  _179
REMARK   70  A    between atoms: _179  and  _180
REMARK   71  A    between atoms: _179  and  _182
REMARK   72  A    between atoms: _182  and  _183
REMARK   73  A    between atoms: _193  and  _195
REMARK   74  A    between atoms: _195  and  _196
REMARK   75  A    between atoms: _195  and  _198
REMARK   76  A    between atoms: _198  and  _199
REMARK   77  A    between atoms: _205  and  _207
REMARK   78  A    between atoms: _207  and  _208
REMARK   79  A    between atoms: _207  and  _210
REMARK   80  A    between atoms: _210  and  _211
REMARK   81  A    between atoms: _214  and  _216
REMARK   82  A    between atoms: _216  and  _217
REMARK   83  A    between atoms: _219  and  _221
REMARK   84  A    between atoms: _221  and  _222
REMARK   85  A    between atoms: _221  and  _224
REMARK   86  A    between atoms: _224  and  _225
REMARK   87  A    between atoms: _228  and  _230
REMARK   88  A    between atoms: _230  and  _231
REMARK   89  A    between atoms: _230  and  _233
REMARK   90  A    between atoms: _233  and  _234
REMARK   91  A    between atoms: _244  and  _246
REMARK   92  A    between atoms: _246  and  _247
REMARK   93  A    between atoms: _246  and  _249
REMARK   94  A    between atoms: _249  and  _250
REMARK   95  A    between atoms: _250  and  _251
REMARK   96  A    between atoms: _251  and  _252
REMARK   97  A    between atoms: _261  and  _263
REMARK   98  A    between atoms: _263  and  _264
REMARK   99  A    between atoms: _263  and  _266
REMARK  100  A    between atoms: _266  and  _267
REMARK  101  A    between atoms: _269  and  _271
REMARK  102  A    between atoms: _271  and  _272
REMARK  103  A    between atoms: _271  and  _274
REMARK  104  A    between atoms: _274  and  _275
REMARK  105  A    between atoms: _275  and  _276
REMARK  106  A    between atoms: _279  and  _281
REMARK  107  A    between atoms: _281  and  _282
REMARK  108  A    between atoms: _281  and  _284
REMARK  109  A    between atoms: _284  and  _285
REMARK  110  A    between atoms: _285  and  _286
REMARK  111  A    between atoms: _286  and  _287
REMARK  112  A    between atoms: _296  and  _298
REMARK  113  A    between atoms: _298  and  _299
REMARK  114  A    between atoms: _298  and  _301
REMARK  115  A    between atoms: _303  and  _305
REMARK  116  A    between atoms: _305  and  _306
REMARK  117  A    between atoms: _305  and  _308
REMARK  118  A    between atoms: _308  and  _309
REMARK  119  A    between atoms: _309  and  _310
REMARK  120  A    between atoms: _312  and  _314
REMARK  121  A    between atoms: _314  and  _315
REMARK  122  A    between atoms: _314  and  _317
REMARK  123  A    between atoms: _317  and  _318
REMARK  124  A    between atoms: _321  and  _323
REMARK  125  A    between atoms: _323  and  _324
REMARK  126  A    between atoms: _323  and  _326
REMARK  127  A    between atoms: _326  and  _327
REMARK  128  A    between atoms: _332  and  _334
REMARK  129  A    between atoms: _334  and  _335
REMARK  130  A    between atoms: _334  and  _337
REMARK  131  A    between atoms: _337  and  _338
REMARK  132  A    between atoms: _338  and  _339
REMARK  133  A    between atoms: _344  and  _346
REMARK  134  A    between atoms: _346  and  _347
REMARK  135  A    between atoms: _346  and  _349
REMARK  136  A    between atoms: _349  and  _350
REMARK  137  A    between atoms: _360  and  _362
REMARK  138  A    between atoms: _362  and  _363
REMARK  139  A    between atoms: _365  and  _367
REMARK  140  A    between atoms: _367  and  _368
REMARK  141  A    between atoms: _367  and  _370
REMARK  142  A    between atoms: _370  and  _371
REMARK                            x       y       z     vdW  Elec       q    Type
REMARK                         _______ _______ _______ _____ _____    ______ ____
ROOT
ATOM      1  C   GLN A   2      28.406  11.195  41.787  0.00  0.00    +0.241 C 
ATOM      2  N   TRP A   3      28.882  10.538  42.830  0.00  0.00    -0.297 N 
ATOM      3  H   TRP A   3      29.879  10.665  43.096  0.00  0.00    +0.150 HD
ATOM      4  O   GLN A   2      27.220  11.095  41.397  0.00  0.00    -0.273 OA
ENDROOT
BRANCH   1   5
ATOM      5  CA  GLN A   2      29.392  12.117  41.062  0.00  0.00    +0.149 C 
BRANCH   5   7
ATOM      6  C   ASN A   1      30.660  11.535  39.029  0.00  0.00    +0.239 C 
ATOM      7  N   GLN A   2      29.502  11.681  39.664  0.00  0.00    -0.297 N 
ATOM      8  H   GLN A   2      28.626  11.475  39.143  0.00  0.00    +0.150 HD
ATOM      9  O   ASN A   1      31.731  11.894  39.510  0.00  0.00    -0.274 OA
BRANCH   6  10
ATOM     10  CA  ASN A   1      30.584  10.901  37.625  0.00  0.00    +0.154 C 
BRANCH  10  11
ATOM     11  N   ASN A   1      29.923  11.770  36.655  0.00  0.00    -0.238 NA
ATOM     12  H   ASN A   1      29.947  12.796  36.822  0.00  0.00    +0.142 HD
ENDBRANCH  10  11
BRANCH  10  13
ATOM     13  CB  ASN A   1      31.986  10.541  37.154  0.00  0.00    +0.111 C 
BRANCH  13  14
ATOM     14  CG  ASN A   1      32.571   9.353  37.925  0.00  0.00    +0.221 C 
ATOM     15  OD1 ASN A   1      31.971   8.858  38.875  0.00  0.00    -0.275 OA
ATOM     16  ND2 ASN A   1      33.728   8.887  37.501  0.00  0.00    -0.329 N 
ATOM     17 HD21 ASN A   1      34.165   8.071  37.975  0.00  0.00    +0.145 HD
ATOM     18 HD22 ASN A   1      34.204   9.335  36.692  0.00  0.00    +0.145 HD
ENDBRANCH  13  14
ENDBRANCH  10  13
ENDBRANCH   6  10
ENDBRANCH   5   7
BRANCH   5  19
ATOM     19  CB  GLN A   2      28.875  13.553  41.119  0.00  0.00    +0.039 C 
BRANCH  19  20
ATOM     20  CG  GLN A   2      29.782  14.587  40.452  0.00  0.00    +0.087 C 
BRANCH  20  21
ATOM     21  CD  GLN A   2      31.118  14.705  41.150  0.00  0.00    +0.219 C 
ATOM     22  OE1 GLN A   2      31.223  14.384  42.330  0.00  0.00    -0.275 OA
ATOM     23  NE2 GLN A   2      32.149  15.156  40.427  0.00  0.00    -0.329 N 
ATOM     24 HE21 GLN A   2      33.089  15.247  40.862  0.00  0.00    +0.145 HD
ATOM     25 HE22 GLN A   2      32.010  15.416  39.430  0.00  0.00    +0.145 HD
ENDBRANCH  20  21
ENDBRANCH  19  20
ENDBRANCH   5  19
ENDBRANCH   1   5
BRANCH   2  26
ATOM     26  CA  TRP A   3      28.044   9.637  43.620  0.00  0.00    +0.153 C 
BRANCH  26  27
ATOM     27  C   TRP A   3      27.717  10.277  44.967  0.00  0.00    +0.241 C 
ATOM     28  N   GLY A   4      28.744  10.686  45.705  0.00  0.00    -0.296 N 
ATOM     29  H   GLY A   4      29.708  10.404  45.434  0.00  0.00    +0.150 HD
ATOM     30  O   TRP A   3      26.558  10.375  45.326  0.00  0.00    -0.273 OA
BRANCH  28  31
ATOM     31  CA  GLY A   4      28.552  11.519  46.884  0.00  0.00    +0.163 C 
BRANCH  31  32
ATOM     32  C   GLY A   4      28.166  12.946  46.525  0.00  0.00    +0.229 C 
ATOM     33  O   GLY A   4      28.243  13.336  45.375  0.00  0.00    -0.286 OA
ENDBRANCH  31  32
ENDBRANCH  28  31
ENDBRANCH  26  27
BRANCH  26  34
ATOM     34  CB  TRP A   3      28.716   8.261  43.812  0.00  0.00    +0.057 C 
BRANCH  34  35
ATOM     35  CG  TRP A   3      28.952   7.475  42.532  0.00  0.00    -0.002 A 
ATOM     36  CD2 TRP A   3      28.052   6.548  41.911  0.00  0.00    +0.013 A 
ATOM     37  CE3 TRP A   3      26.748   6.123  42.193  0.00  0.00    +0.001 A 
ATOM     38  CZ3 TRP A   3      26.155   5.209  41.359  0.00  0.00    +0.000 A 
ATOM     39  CH2 TRP A   3      26.823   4.719  40.227  0.00  0.00    +0.001 A 
ATOM     40  CZ2 TRP A   3      28.094   5.125  39.919  0.00  0.00    +0.017 A 
ATOM     41  CE2 TRP A   3      28.700   6.038  40.772  0.00  0.00    +0.056 A 
ATOM     42  NE1 TRP A   3      29.945   6.601  40.718  0.00  0.00    -0.352 N 
ATOM     43  HE1 TRP A   3      30.666   6.407  39.994  0.00  0.00    +0.166 HD
ATOM     44  CD1 TRP A   3      30.086   7.464  41.775  0.00  0.00    +0.068 A 
ENDBRANCH  34  35
ENDBRANCH  26  34
ENDBRANCH   2  26
TORSDOF 15
REMARK  Name = ../refined-set-2016/2xib/2xib_pocket.pdb
REMARK  142 active torsions:
REMARK  status: ('A' for Active; 'I' for Inactive)
REMARK    1  A    between atoms: _1  and  _3
REMARK    2  A    between atoms: _3  and  _4
REMARK    3  A    between atoms: _3  and  _6
REMARK    4  A    between atoms: _6  and  _7
REMARK    5  A    between atoms: _13  and  _15
REMARK    6  A    between atoms: _15  and  _16
REMARK    7  A    between atoms: _15  and  _18
REMARK    8  A    between atoms: _18  and  _19
REMARK    9  A    between atoms: _24  and  _26
REMARK   10  A    between atoms: _26  and  _27
REMARK   11  A    between atoms: _26  and  _29
REMARK   12  A    between atoms: _29  and  _30
REMARK   13  A    between atoms: _35  and  _36
REMARK   14  A    between atoms: _38  and  _40
REMARK   15  A    between atoms: _40  and  _41
REMARK   16  A    between atoms: _44  and  _46
REMARK   17  A    between atoms: _46  and  _47
REMARK   18  A    between atoms: _50  and  _52
REMARK   19  A    between atoms: _52  and  _53
REMARK   20  A    between atoms: _52  and  _55
REMARK   21  A    between atoms: _55  and  _56
REMARK   22  A    between atoms: _56  and  _57
REMARK   23  A    between atoms: _60  and  _62
REMARK   24  A    between atoms: _62  and  _63
REMARK   25  A    between atoms: _62  and  _65
REMARK   26  A    between atoms: _65  and  _66
REMARK   27  A    between atoms: _76  and  _78
REMARK   28  A    between atoms: _78  and  _79
REMARK   29  A    between atoms: _78  and  _81
REMARK   30  A    between atoms: _81  and  _82
REMARK   31  A    between atoms: _85  and  _87
REMARK   32  A    between atoms: _87  and  _88
REMARK   33  A    between atoms: _87  and  _90
REMARK   34  A    between atoms: _90  and  _91
REMARK   35  A    between atoms: _91  and  _92
REMARK   36  A    between atoms: _92  and  _93
REMARK   37  A    between atoms: _93  and  _94
REMARK   38  A    between atoms: _98  and  _100
REMARK   39  A    between atoms: _100  and  _101
REMARK   40  A    between atoms: _100  and  _103
REMARK   41  A    between atoms: _103  and  _104
REMARK   42  A    between atoms: _109  and  _111
REMARK   43  A    between atoms: _111  and  _112
REMARK   44  A    between atoms: _111  and  _114
REMARK   45  A    between atoms: _114  and  _115
REMARK   46  A    between atoms: _120  and  _122
REMARK   47  A    between atoms: _122  and  _123
REMARK   48  A    between atoms: _122  and  _125
REMARK   49  A    between atoms: _125  and  _126
REMARK   50  A    between atoms: _126  and  _127
REMARK   51  A    between atoms: _130  and  _132
REMARK   52  A    between atoms: _132  and  _133
REMARK   53  A    between atoms: _132  and  _135
REMARK   54  A    between atoms: _135  and  _136
REMARK   55  A    between atoms: _141  and  _142
REMARK   56  A    between atoms: _144  and  _146
REMARK   57  A    between atoms: _146  and  _147
REMARK   58  A    between atoms: _146  and  _149
REMARK   59  A    between atoms: _149  and  _150
REMARK   60  A    between atoms: _152  and  _154
REMARK   61  A    between atoms: _154  and  _155
REMARK   62  A    between atoms: _154  and  _157
REMARK   63  A    between atoms: _157  and  _158
REMARK   64  A    between atoms: _158  and  _159
REMARK   65  A    between atoms: _161  and  _163
REMARK   66  A    between atoms: _163  and  _164
REMARK   67  A    between atoms: _163  and  _166
REMARK   68  A    between atoms: _166  and  _167
REMARK   69  A    between atoms: _177  and  _179
REMARK   70  A    between atoms: _179  and  _180
REMARK   71  A    between atoms: _179  and  _182
REMARK   72  A    between atoms: _182  and  _183
REMARK   73  A    between atoms: _193  and  _195
REMARK   74  A    between atoms: _195  and  _196
REMARK   75  A    between atoms: _195  and  _198
REMARK   76  A    between atoms: _198  and  _199
REMARK   77  A    between atoms: _205  and  _207
REMARK   78  A    between atoms: _207  and  _208
REMARK   79  A    between atoms: _207  and  _210
REMARK   80  A    between atoms: _210  and  _211
REMARK   81  A    between atoms: _214  and  _216
REMARK   82  A    between atoms: _216  and  _217
REMARK   83  A    between atoms: _219  and  _221
REMARK   84  A    between atoms: _221  and  _222
REMARK   85  A    between atoms: _221  and  _224
REMARK   86  A    between atoms: _224  and  _225
REMARK   87  A    between atoms: _228  and  _230
REMARK   88  A    between atoms: _230  and  _231
REMARK   89  A    between atoms: _230  and  _233
REMARK   90  A    between atoms: _233  and  _234
REMARK   91  A    between atoms: _244  and  _246
REMARK   92  A    between atoms: _246  and  _247
REMARK   93  A    between atoms: _246  and  _249
REMARK   94  A    between atoms: _249  and  _250
REMARK   95  A    between atoms: _250  and  _251
REMARK   96  A    between atoms: _251  and  _252
REMARK   97  A    between atoms: _261  and  _263
REMARK   98  A    between atoms: _263  and  _264
REMARK   99  A    between atoms: _263  and  _266
REMARK  100  A    between atoms: _266  and  _267
REMARK  101  A    between atoms: _269  and  _271
REMARK  102  A    between atoms: _271  and  _272
REMARK  103  A    between atoms: _271  and  _274
REMARK  104  A    between atoms: _274  and  _275
REMARK  105  A    between atoms: _275  and  _276
REMARK  106  A    between atoms: _279  and  _281
REMARK  107  A    between atoms: _281  and  _282
REMARK  108  A    between atoms: _281  and  _284
REMARK  109  A    between atoms: _284  and  _285
REMARK  110  A    between atoms: _285  and  _286
REMARK  111  A    between atoms: _286  and  _287
REMARK  112  A    between atoms: _296  and  _298
REMARK  113  A    between atoms: _298  and  _299
REMARK  114  A    between atoms: _298  and  _301
REMARK  115  A    between atoms: _303  and  _305
REMARK  116  A    between atoms: _305  and  _306
REMARK  117  A    between atoms: _305  and  _308
REMARK  118  A    between atoms: _308  and  _309
REMARK  119  A    between atoms: _309  and  _310
REMARK  120  A    between atoms: _312  and  _314
REMARK  121  A    between atoms: _314  and  _315
REMARK  122  A    between atoms: _314  and  _317
REMARK  123  A    between atoms: _317  and  _318
REMARK  124  A    between atoms: _321  and  _323
REMARK  125  A    between atoms: _323  and  _324
REMARK  126  A    between atoms: _323  and  _326
REMARK  127  A    between atoms: _326  and  _327
REMARK  128  A    between atoms: _332  and  _334
REMARK  129  A    between atoms: _334  and  _335
REMARK  130  A    between atoms: _334  and  _337
REMARK  131  A    between atoms: _337  and  _338
REMARK  132  A    between atoms: _338  and  _339
REMARK  133  A    between atoms: _344  and  _346
REMARK  134  A    between atoms: _346  and  _347
REMARK  135  A    between atoms: _346  and  _349
REMARK  136  A    between atoms: _349  and  _350
REMARK  137  A    between atoms: _360  and  _362
REMARK  138  A    between atoms: _362  and  _363
REMARK  139  A    between atoms: _365  and  _367
REMARK  140  A    between atoms: _367  and  _368
REMARK  141  A    between atoms: _367  and  _370
REMARK  142  A    between atoms: _370  and  _371
REMARK                            x       y       z     vdW  Elec       q    Type
REMARK                         _______ _______ _______ _____ _____    ______ ____
ROOT
ATOM      1  CB  ASN A   1      23.265   7.462  42.370  0.00  0.00    +0.110 C 
ENDROOT
BRANCH   1   2
ATOM      2  CG  ASN A   1      24.079   7.957  43.570  0.00  0.00    +0.221 C 
ATOM      3  OD1 ASN A   1      24.186   7.269  44.579  0.00  0.00    -0.275 OA
ATOM      4  ND2 ASN A   1      24.637   9.160  43.462  0.00  0.00    -0.329 N 
ATOM      5 HD21 ASN A   1      25.189   9.550  44.252  0.00  0.00    +0.145 HD
ATOM      6 HD22 ASN A   1      24.521   9.710  42.587  0.00  0.00    +0.145 HD
ENDBRANCH   1   2
BRANCH   1   7
ATOM      7  CA  ASN A   1      21.775   7.496  42.638  0.00  0.00    +0.142 C 
BRANCH   7   8
ATOM      8  N   ASN A   1      21.027   7.020  41.491  0.00  0.00    -0.239 NA
ATOM      9  H   ASN A   1      21.443   7.119  40.543  0.00  0.00    +0.142 HD
ENDBRANCH   7   8
BRANCH   7  10
ATOM     10  C   ASN A   1      21.433   8.907  43.058  0.00  0.00    +0.225 C 
ATOM     11  O   ASN A   1      21.150   9.779  42.219  0.00  0.00    -0.287 OA
ENDBRANCH   7  10
ENDBRANCH   1   7
TORSDOF 4
REMARK  Name = ../refined-set-2016/2xib/2xib_pocket.pdb
REMARK  142 active torsions:
REMARK  status: ('A' for Active; 'I' for Inactive)
REMARK    1  A    between atoms: _1  and  _3
REMARK    2  A    between atoms: _3  and  _4
REMARK    3  A    between atoms: _3  and  _6
REMARK    4  A    between atoms: _6  and  _7
REMARK    5  A    between atoms: _13  and  _15
REMARK    6  A    between atoms: _15  and  _16
REMARK    7  A    between atoms: _15  and  _18
REMARK    8  A    between atoms: _18  and  _19
REMARK    9  A    between atoms: _24  and  _26
REMARK   10  A    between atoms: _26  and  _27
REMARK   11  A    between atoms: _26  and  _29
REMARK   12  A    between atoms: _29  and  _30
REMARK   13  A    between atoms: _35  and  _36
REMARK   14  A    between atoms: _38  and  _40
REMARK   15  A    between atoms: _40  and  _41
REMARK   16  A    between atoms: _44  and  _46
REMARK   17  A    between atoms: _46  and  _47
REMARK   18  A    between atoms: _50  and  _52
REMARK   19  A    between atoms: _52  and  _53
REMARK   20  A    between atoms: _52  and  _55
REMARK   21  A    between atoms: _55  and  _56
REMARK   22  A    between atoms: _56  and  _57
REMARK   23  A    between atoms: _60  and  _62
REMARK   24  A    between atoms: _62  and  _63
REMARK   25  A    between atoms: _62  and  _65
REMARK   26  A    between atoms: _65  and  _66
REMARK   27  A    between atoms: _76  and  _78
REMARK   28  A    between atoms: _78  and  _79
REMARK   29  A    between atoms: _78  and  _81
REMARK   30  A    between atoms: _81  and  _82
REMARK   31  A    between atoms: _85  and  _87
REMARK   32  A    between atoms: _87  and  _88
REMARK   33  A    between atoms: _87  and  _90
REMARK   34  A    between atoms: _90  and  _91
REMARK   35  A    between atoms: _91  and  _92
REMARK   36  A    between atoms: _92  and  _93
REMARK   37  A    between atoms: _93  and  _94
REMARK   38  A    between atoms: _98  and  _100
REMARK   39  A    between atoms: _100  and  _101
REMARK   40  A    between atoms: _100  and  _103
REMARK   41  A    between atoms: _103  and  _104
REMARK   42  A    between atoms: _109  and  _111
REMARK   43  A    between atoms: _111  and  _112
REMARK   44  A    between atoms: _111  and  _114
REMARK   45  A    between atoms: _114  and  _115
REMARK   46  A    between atoms: _120  and  _122
REMARK   47  A    between atoms: _122  and  _123
REMARK   48  A    between atoms: _122  and  _125
REMARK   49  A    between atoms: _125  and  _126
REMARK   50  A    between atoms: _126  and  _127
REMARK   51  A    between atoms: _130  and  _132
REMARK   52  A    between atoms: _132  and  _133
REMARK   53  A    between atoms: _132  and  _135
REMARK   54  A    between atoms: _135  and  _136
REMARK   55  A    between atoms: _141  and  _142
REMARK   56  A    between atoms: _144  and  _146
REMARK   57  A    between atoms: _146  and  _147
REMARK   58  A    between atoms: _146  and  _149
REMARK   59  A    between atoms: _149  and  _150
REMARK   60  A    between atoms: _152  and  _154
REMARK   61  A    between atoms: _154  and  _155
REMARK   62  A    between atoms: _154  and  _157
REMARK   63  A    between atoms: _157  and  _158
REMARK   64  A    between atoms: _158  and  _159
REMARK   65  A    between atoms: _161  and  _163
REMARK   66  A    between atoms: _163  and  _164
REMARK   67  A    between atoms: _163  and  _166
REMARK   68  A    between atoms: _166  and  _167
REMARK   69  A    between atoms: _177  and  _179
REMARK   70  A    between atoms: _179  and  _180
REMARK   71  A    between atoms: _179  and  _182
REMARK   72  A    between atoms: _182  and  _183
REMARK   73  A    between atoms: _193  and  _195
REMARK   74  A    between atoms: _195  and  _196
REMARK   75  A    between atoms: _195  and  _198
REMARK   76  A    between atoms: _198  and  _199
REMARK   77  A    between atoms: _205  and  _207
REMARK   78  A    between atoms: _207  and  _208
REMARK   79  A    between atoms: _207  and  _210
REMARK   80  A    between atoms: _210  and  _211
REMARK   81  A    between atoms: _214  and  _216
REMARK   82  A    between atoms: _216  and  _217
REMARK   83  A    between atoms: _219  and  _221
REMARK   84  A    between atoms: _221  and  _222
REMARK   85  A    between atoms: _221  and  _224
REMARK   86  A    between atoms: _224  and  _225
REMARK   87  A    between atoms: _228  and  _230
REMARK   88  A    between atoms: _230  and  _231
REMARK   89  A    between atoms: _230  and  _233
REMARK   90  A    between atoms: _233  and  _234
REMARK   91  A    between atoms: _244  and  _246
REMARK   92  A    between atoms: _246  and  _247
REMARK   93  A    between atoms: _246  and  _249
REMARK   94  A    between atoms: _249  and  _250
REMARK   95  A    between atoms: _250  and  _251
REMARK   96  A    between atoms: _251  and  _252
REMARK   97  A    between atoms: _261  and  _263
REMARK   98  A    between atoms: _263  and  _264
REMARK   99  A    between atoms: _263  and  _266
REMARK  100  A    between atoms: _266  and  _267
REMARK  101  A    between atoms: _269  and  _271
REMARK  102  A    between atoms: _271  and  _272
REMARK  103  A    between atoms: _271  and  _274
REMARK  104  A    between atoms: _274  and  _275
REMARK  105  A    between atoms: _275  and  _276
REMARK  106  A    between atoms: _279  and  _281
REMARK  107  A    between atoms: _281  and  _282
REMARK  108  A    between atoms: _281  and  _284
REMARK  109  A    between atoms: _284  and  _285
REMARK  110  A    between atoms: _285  and  _286
REMARK  111  A    between atoms: _286  and  _287
REMARK  112  A    between atoms: _296  and  _298
REMARK  113  A    between atoms: _298  and  _299
REMARK  114  A    between atoms: _298  and  _301
REMARK  115  A    between atoms: _303  and  _305
REMARK  116  A    between atoms: _305  and  _306
REMARK  117  A    between atoms: _305  and  _308
REMARK  118  A    between atoms: _308  and  _309
REMARK  119  A    between atoms: _309  and  _310
REMARK  120  A    between atoms: _312  and  _314
REMARK  121  A    between atoms: _314  and  _315
REMARK  122  A    between atoms: _314  and  _317
REMARK  123  A    between atoms: _317  and  _318
REMARK  124  A    between atoms: _321  and  _323
REMARK  125  A    between atoms: _323  and  _324
REMARK  126  A    between atoms: _323  and  _326
REMARK  127  A    between atoms: _326  and  _327
REMARK  128  A    between atoms: _332  and  _334
REMARK  129  A    between atoms: _334  and  _335
REMARK  130  A    between atoms: _334  and  _337
REMARK  131  A    between atoms: _337  and  _338
REMARK  132  A    between atoms: _338  and  _339
REMARK  133  A    between atoms: _344  and  _346
REMARK  134  A    between atoms: _346  and  _347
REMARK  135  A    between atoms: _346  and  _349
REMARK  136  A    between atoms: _349  and  _350
REMARK  137  A    between atoms: _360  and  _362
REMARK  138  A    between atoms: _362  and  _363
REMARK  139  A    between atoms: _365  and  _367
REMARK  140  A    between atoms: _367  and  _368
REMARK  141  A    between atoms: _367  and  _370
REMARK  142  A    between atoms: _370  and  _371
REMARK                            x       y       z     vdW  Elec       q    Type
REMARK                         _______ _______ _______ _____ _____    ______ ____
ROOT
ATOM      1  O   HOH     1      34.887   7.152  50.266  0.00  0.00    +0.000 OA
ENDROOT
TORSDOF 0
REMARK  Name = ../refined-set-2016/2xib/2xib_pocket.pdb
REMARK  142 active torsions:
REMARK  status: ('A' for Active; 'I' for Inactive)
REMARK    1  A    between atoms: _1  and  _3
REMARK    2  A    between atoms: _3  and  _4
REMARK    3  A    between atoms: _3  and  _6
REMARK    4  A    between atoms: _6  and  _7
REMARK    5  A    between atoms: _13  and  _15
REMARK    6  A    between atoms: _15  and  _16
REMARK    7  A    between atoms: _15  and  _18
REMARK    8  A    between atoms: _18  and  _19
REMARK    9  A    between atoms: _24  and  _26
REMARK   10  A    between atoms: _26  and  _27
REMARK   11  A    between atoms: _26  and  _29
REMARK   12  A    between atoms: _29  and  _30
REMARK   13  A    between atoms: _35  and  _36
REMARK   14  A    between atoms: _38  and  _40
REMARK   15  A    between atoms: _40  and  _41
REMARK   16  A    between atoms: _44  and  _46
REMARK   17  A    between atoms: _46  and  _47
REMARK   18  A    between atoms: _50  and  _52
REMARK   19  A    between atoms: _52  and  _53
REMARK   20  A    between atoms: _52  and  _55
REMARK   21  A    between atoms: _55  and  _56
REMARK   22  A    between atoms: _56  and  _57
REMARK   23  A    between atoms: _60  and  _62
REMARK   24  A    between atoms: _62  and  _63
REMARK   25  A    between atoms: _62  and  _65
REMARK   26  A    between atoms: _65  and  _66
REMARK   27  A    between atoms: _76  and  _78
REMARK   28  A    between atoms: _78  and  _79
REMARK   29  A    between atoms: _78  and  _81
REMARK   30  A    between atoms: _81  and  _82
REMARK   31  A    between atoms: _85  and  _87
REMARK   32  A    between atoms: _87  and  _88
REMARK   33  A    between atoms: _87  and  _90
REMARK   34  A    between atoms: _90  and  _91
REMARK   35  A    between atoms: _91  and  _92
REMARK   36  A    between atoms: _92  and  _93
REMARK   37  A    between atoms: _93  and  _94
REMARK   38  A    between atoms: _98  and  _100
REMARK   39  A    between atoms: _100  and  _101
REMARK   40  A    between atoms: _100  and  _103
REMARK   41  A    between atoms: _103  and  _104
REMARK   42  A    between atoms: _109  and  _111
REMARK   43  A    between atoms: _111  and  _112
REMARK   44  A    between atoms: _111  and  _114
REMARK   45  A    between atoms: _114  and  _115
REMARK   46  A    between atoms: _120  and  _122
REMARK   47  A    between atoms: _122  and  _123
REMARK   48  A    between atoms: _122  and  _125
REMARK   49  A    between atoms: _125  and  _126
REMARK   50  A    between atoms: _126  and  _127
REMARK   51  A    between atoms: _130  and  _132
REMARK   52  A    between atoms: _132  and  _133
REMARK   53  A    between atoms: _132  and  _135
REMARK   54  A    between atoms: _135  and  _136
REMARK   55  A    between atoms: _141  and  _142
REMARK   56  A    between atoms: _144  and  _146
REMARK   57  A    between atoms: _146  and  _147
REMARK   58  A    between atoms: _146  and  _149
REMARK   59  A    between atoms: _149  and  _150
REMARK   60  A    between atoms: _152  and  _154
REMARK   61  A    between atoms: _154  and  _155
REMARK   62  A    between atoms: _154  and  _157
REMARK   63  A    between atoms: _157  and  _158
REMARK   64  A    between atoms: _158  and  _159
REMARK   65  A    between atoms: _161  and  _163
REMARK   66  A    between atoms: _163  and  _164
REMARK   67  A    between atoms: _163  and  _166
REMARK   68  A    between atoms: _166  and  _167
REMARK   69  A    between atoms: _177  and  _179
REMARK   70  A    between atoms: _179  and  _180
REMARK   71  A    between atoms: _179  and  _182
REMARK   72  A    between atoms: _182  and  _183
REMARK   73  A    between atoms: _193  and  _195
REMARK   74  A    between atoms: _195  and  _196
REMARK   75  A    between atoms: _195  and  _198
REMARK   76  A    between atoms: _198  and  _199
REMARK   77  A    between atoms: _205  and  _207
REMARK   78  A    between atoms: _207  and  _208
REMARK   79  A    between atoms: _207  and  _210
REMARK   80  A    between atoms: _210  and  _211
REMARK   81  A    between atoms: _214  and  _216
REMARK   82  A    between atoms: _216  and  _217
REMARK   83  A    between atoms: _219  and  _221
REMARK   84  A    between atoms: _221  and  _222
REMARK   85  A    between atoms: _221  and  _224
REMARK   86  A    between atoms: _224  and  _225
REMARK   87  A    between atoms: _228  and  _230
REMARK   88  A    between atoms: _230  and  _231
REMARK   89  A    between atoms: _230  and  _233
REMARK   90  A    between atoms: _233  and  _234
REMARK   91  A    between atoms: _244  and  _246
REMARK   92  A    between atoms: _246  and  _247
REMARK   93  A    between atoms: _246  and  _249
REMARK   94  A    between atoms: _249  and  _250
REMARK   95  A    between atoms: _250  and  _251
REMARK   96  A    between atoms: _251  and  _252
REMARK   97  A    between atoms: _261  and  _263
REMARK   98  A    between atoms: _263  and  _264
REMARK   99  A    between atoms: _263  and  _266
REMARK  100  A    between atoms: _266  and  _267
REMARK  101  A    between atoms: _269  and  _271
REMARK  102  A    between atoms: _271  and  _272
REMARK  103  A    between atoms: _271  and  _274
REMARK  104  A    between atoms: _274  and  _275
REMARK  105  A    between atoms: _275  and  _276
REMARK  106  A    between atoms: _279  and  _281
REMARK  107  A    between atoms: _281  and  _282
REMARK  108  A    between atoms: _281  and  _284
REMARK  109  A    between atoms: _284  and  _285
REMARK  110  A    between atoms: _285  and  _286
REMARK  111  A    between atoms: _286  and  _287
REMARK  112  A    between atoms: _296  and  _298
REMARK  113  A    between atoms: _298  and  _299
REMARK  114  A    between atoms: _298  and  _301
REMARK  115  A    between atoms: _303  and  _305
REMARK  116  A    between atoms: _305  and  _306
REMARK  117  A    between atoms: _305  and  _308
REMARK  118  A    between atoms: _308  and  _309
REMARK  119  A    between atoms: _309  and  _310
REMARK  120  A    between atoms: _312  and  _314
REMARK  121  A    between atoms: _314  and  _315
REMARK  122  A    between atoms: _314  and  _317
REMARK  123  A    between atoms: _317  and  _318
REMARK  124  A    between atoms: _321  and  _323
REMARK  125  A    between atoms: _323  and  _324
REMARK  126  A    between atoms: _323  and  _326
REMARK  127  A    between atoms: _326  and  _327
REMARK  128  A    between atoms: _332  and  _334
REMARK  129  A    between atoms: _334  and  _335
REMARK  130  A    between atoms: _334  and  _337
REMARK  131  A    between atoms: _337  and  _338
REMARK  132  A    between atoms: _338  and  _339
REMARK  133  A    between atoms: _344  and  _346
REMARK  134  A    between atoms: _346  and  _347
REMARK  135  A    between atoms: _346  and  _349
REMARK  136  A    between atoms: _349  and  _350
REMARK  137  A    between atoms: _360  and  _362
REMARK  138  A    between atoms: _362  and  _363
REMARK  139  A    between atoms: _365  and  _367
REMARK  140  A    between atoms: _367  and  _368
REMARK  141  A    between atoms: _367  and  _370
REMARK  142  A    between atoms: _370  and  _371
REMARK                            x       y       z     vdW  Elec       q    Type
REMARK                         _______ _______ _______ _____ _____    ______ ____
ROOT
ATOM      1  O   HOH     1      31.594   5.196  38.475  0.00  0.00    +0.000 OA
ENDROOT
TORSDOF 0
