REMARK  Name = ../refined-set-2016/3o4k/3o4k_pocket.pdb
REMARK  297 active torsions:
REMARK  status: ('A' for Active; 'I' for Inactive)
REMARK    1  A    between atoms: _1  and  _3
REMARK    2  A    between atoms: _3  and  _4
REMARK    3  A    between atoms: _3  and  _6
REMARK    4  A    between atoms: _6  and  _7
REMARK    5  A    between atoms: _7  and  _8
REMARK    6  A    between atoms: _8  and  _9
REMARK    7  A    between atoms: _18  and  _20
REMARK    8  A    between atoms: _20  and  _21
REMARK    9  A    between atoms: _20  and  _23
REMARK   10  A    between atoms: _23  and  _24
REMARK   11  A    between atoms: _29  and  _30
REMARK   12  A    between atoms: _32  and  _34
REMARK   13  A    between atoms: _34  and  _35
REMARK   14  A    between atoms: _34  and  _37
REMARK   15  A    between atoms: _37  and  _38
REMARK   16  A    between atoms: _48  and  _50
REMARK   17  A    between atoms: _50  and  _51
REMARK   18  A    between atoms: _50  and  _53
REMARK   19  A    between atoms: _53  and  _54
REMARK   20  A    between atoms: _54  and  _55
REMARK   21  A    between atoms: _55  and  _56
REMARK   22  A    between atoms: _65  and  _67
REMARK   23  A    between atoms: _67  and  _68
REMARK   24  A    between atoms: _67  and  _70
REMARK   25  A    between atoms: _70  and  _71
REMARK   26  A    between atoms: _73  and  _75
REMARK   27  A    between atoms: _75  and  _76
REMARK   28  A    between atoms: _75  and  _78
REMARK   29  A    between atoms: _78  and  _79
REMARK   30  A    between atoms: _84  and  _86
REMARK   31  A    between atoms: _86  and  _87
REMARK   32  A    between atoms: _86  and  _89
REMARK   33  A    between atoms: _89  and  _90
REMARK   34  A    between atoms: _95  and  _96
REMARK   35  A    between atoms: _98  and  _100
REMARK   36  A    between atoms: _100  and  _101
REMARK   37  A    between atoms: _100  and  _103
REMARK   38  A    between atoms: _103  and  _104
REMARK   39  A    between atoms: _104  and  _105
REMARK   40  A    between atoms: _108  and  _110
REMARK   41  A    between atoms: _110  and  _111
REMARK   42  A    between atoms: _110  and  _113
REMARK   43  A    between atoms: _116  and  _118
REMARK   44  A    between atoms: _118  and  _119
REMARK   45  A    between atoms: _118  and  _121
REMARK   46  A    between atoms: _121  and  _122
REMARK   47  A    between atoms: _122  and  _123
REMARK   48  A    between atoms: _123  and  _124
REMARK   49  A    between atoms: _124  and  _125
REMARK   50  A    between atoms: _129  and  _131
REMARK   51  A    between atoms: _131  and  _132
REMARK   52  A    between atoms: _131  and  _134
REMARK   53  A    between atoms: _134  and  _135
REMARK   54  A    between atoms: _140  and  _142
REMARK   55  A    between atoms: _142  and  _143
REMARK   56  A    between atoms: _142  and  _145
REMARK   57  A    between atoms: _145  and  _146
REMARK   58  A    between atoms: _151  and  _152
REMARK   59  A    between atoms: _154  and  _156
REMARK   60  A    between atoms: _156  and  _157
REMARK   61  A    between atoms: _156  and  _159
REMARK   62  A    between atoms: _159  and  _160
REMARK   63  A    between atoms: _160  and  _161
REMARK   64  A    between atoms: _161  and  _162
REMARK   65  A    between atoms: _171  and  _173
REMARK   66  A    between atoms: _173  and  _174
REMARK   67  A    between atoms: _178  and  _180
REMARK   68  A    between atoms: _180  and  _181
REMARK   69  A    between atoms: _180  and  _183
REMARK   70  A    between atoms: _183  and  _184
REMARK   71  A    between atoms: _186  and  _188
REMARK   72  A    between atoms: _188  and  _189
REMARK   73  A    between atoms: _188  and  _191
REMARK   74  A    between atoms: _191  and  _192
REMARK   75  A    between atoms: _192  and  _193
REMARK   76  A    between atoms: _196  and  _198
REMARK   77  A    between atoms: _198  and  _199
REMARK   78  A    between atoms: _198  and  _201
REMARK   79  A    between atoms: _201  and  _202
REMARK   80  A    between atoms: _202  and  _352
REMARK   81  A    between atoms: _203  and  _205
REMARK   82  A    between atoms: _205  and  _206
REMARK   83  A    between atoms: _205  and  _208
REMARK   84  A    between atoms: _208  and  _209
REMARK   85  A    between atoms: _209  and  _210
REMARK   86  A    between atoms: _210  and  _211
REMARK   87  A    between atoms: _220  and  _222
REMARK   88  A    between atoms: _222  and  _223
REMARK   89  A    between atoms: _222  and  _225
REMARK   90  A    between atoms: _225  and  _226
REMARK   91  A    between atoms: _226  and  _227
REMARK   92  A    between atoms: _230  and  _232
REMARK   93  A    between atoms: _232  and  _233
REMARK   94  A    between atoms: _232  and  _235
REMARK   95  A    between atoms: _235  and  _236
REMARK   96  A    between atoms: _236  and  _237
REMARK   97  A    between atoms: _237  and  _238
REMARK   98  A    between atoms: _247  and  _249
REMARK   99  A    between atoms: _249  and  _250
REMARK  100  A    between atoms: _249  and  _252
REMARK  101  A    between atoms: _252  and  _253
REMARK  102  A    between atoms: _255  and  _257
REMARK  103  A    between atoms: _257  and  _258
REMARK  104  A    between atoms: _257  and  _260
REMARK  105  A    between atoms: _260  and  _261
REMARK  106  A    between atoms: _266  and  _267
REMARK  107  A    between atoms: _269  and  _271
REMARK  108  A    between atoms: _271  and  _272
REMARK  109  A    between atoms: _271  and  _274
REMARK  110  A    between atoms: _274  and  _275
REMARK  111  A    between atoms: _280  and  _282
REMARK  112  A    between atoms: _282  and  _283
REMARK  113  A    between atoms: _282  and  _285
REMARK  114  A    between atoms: _288  and  _290
REMARK  115  A    between atoms: _290  and  _291
REMARK  116  A    between atoms: _290  and  _293
REMARK  117  A    between atoms: _293  and  _294
REMARK  118  A    between atoms: _294  and  _295
REMARK  119  A    between atoms: _295  and  _296
REMARK  120  A    between atoms: _305  and  _307
REMARK  121  A    between atoms: _307  and  _308
REMARK  122  A    between atoms: _307  and  _310
REMARK  123  A    between atoms: _310  and  _311
REMARK  124  A    between atoms: _316  and  _318
REMARK  125  A    between atoms: _318  and  _319
REMARK  126  A    between atoms: _318  and  _321
REMARK  127  A    between atoms: _321  and  _322
REMARK  128  A    between atoms: _325  and  _327
REMARK  129  A    between atoms: _327  and  _328
REMARK  130  A    between atoms: _330  and  _332
REMARK  131  A    between atoms: _332  and  _333
REMARK  132  A    between atoms: _332  and  _335
REMARK  133  A    between atoms: _335  and  _336
REMARK  134  A    between atoms: _346  and  _348
REMARK  135  A    between atoms: _348  and  _349
REMARK  136  A    between atoms: _348  and  _351
REMARK  137  A    between atoms: _351  and  _352
REMARK  138  A    between atoms: _353  and  _355
REMARK  139  A    between atoms: _355  and  _356
REMARK  140  A    between atoms: _355  and  _358
REMARK  141  A    between atoms: _358  and  _359
REMARK  142  A    between atoms: _362  and  _364
REMARK  143  A    between atoms: _364  and  _365
REMARK  144  A    between atoms: _367  and  _369
REMARK  145  A    between atoms: _369  and  _370
REMARK  146  A    between atoms: _369  and  _372
REMARK  147  A    between atoms: _372  and  _373
REMARK  148  A    between atoms: _378  and  _379
REMARK  149  A    between atoms: _381  and  _383
REMARK  150  A    between atoms: _383  and  _384
REMARK  151  A    between atoms: _383  and  _386
REMARK  152  A    between atoms: _386  and  _387
REMARK  153  A    between atoms: _387  and  _388
REMARK  154  A    between atoms: _388  and  _389
REMARK  155  A    between atoms: _398  and  _400
REMARK  156  A    between atoms: _400  and  _401
REMARK  157  A    between atoms: _400  and  _403
REMARK  158  A    between atoms: _403  and  _404
REMARK  159  A    between atoms: _407  and  _409
REMARK  160  A    between atoms: _409  and  _410
REMARK  161  A    between atoms: _409  and  _412
REMARK  162  A    between atoms: _412  and  _413
REMARK  163  A    between atoms: _413  and  _414
REMARK  164  A    between atoms: _414  and  _415
REMARK  165  A    between atoms: _415  and  _416
REMARK  166  A    between atoms: _420  and  _422
REMARK  167  A    between atoms: _422  and  _423
REMARK  168  A    between atoms: _425  and  _427
REMARK  169  A    between atoms: _427  and  _428
REMARK  170  A    between atoms: _431  and  _433
REMARK  171  A    between atoms: _433  and  _434
REMARK  172  A    between atoms: _433  and  _436
REMARK  173  A    between atoms: _436  and  _437
REMARK  174  A    between atoms: _442  and  _444
REMARK  175  A    between atoms: _444  and  _445
REMARK  176  A    between atoms: _448  and  _450
REMARK  177  A    between atoms: _450  and  _451
REMARK  178  A    between atoms: _454  and  _455
REMARK  179  A    between atoms: _460  and  _462
REMARK  180  A    between atoms: _462  and  _463
REMARK  181  A    between atoms: _462  and  _465
REMARK  182  A    between atoms: _465  and  _466
REMARK  183  A    between atoms: _469  and  _471
REMARK  184  A    between atoms: _471  and  _472
REMARK  185  A    between atoms: _471  and  _474
REMARK  186  A    between atoms: _474  and  _475
REMARK  187  A    between atoms: _485  and  _487
REMARK  188  A    between atoms: _487  and  _488
REMARK  189  A    between atoms: _487  and  _490
REMARK  190  A    between atoms: _490  and  _491
REMARK  191  A    between atoms: _497  and  _498
REMARK  192  A    between atoms: _503  and  _505
REMARK  193  A    between atoms: _505  and  _506
REMARK  194  A    between atoms: _505  and  _508
REMARK  195  A    between atoms: _508  and  _509
REMARK  196  A    between atoms: _514  and  _516
REMARK  197  A    between atoms: _516  and  _517
REMARK  198  A    between atoms: _516  and  _519
REMARK  199  A    between atoms: _522  and  _524
REMARK  200  A    between atoms: _524  and  _525
REMARK  201  A    between atoms: _524  and  _527
REMARK  202  A    between atoms: _527  and  _528
REMARK  203  A    between atoms: _528  and  _529
REMARK  204  A    between atoms: _535  and  _536
REMARK  205  A    between atoms: _541  and  _543
REMARK  206  A    between atoms: _543  and  _544
REMARK  207  A    between atoms: _543  and  _546
REMARK  208  A    between atoms: _546  and  _547
REMARK  209  A    between atoms: _550  and  _552
REMARK  210  A    between atoms: _552  and  _553
REMARK  211  A    between atoms: _552  and  _555
REMARK  212  A    between atoms: _555  and  _556
REMARK  213  A    between atoms: _558  and  _560
REMARK  214  A    between atoms: _560  and  _561
REMARK  215  A    between atoms: _560  and  _563
REMARK  216  A    between atoms: _563  and  _564
REMARK  217  A    between atoms: _569  and  _570
REMARK  218  A    between atoms: _572  and  _574
REMARK  219  A    between atoms: _574  and  _575
REMARK  220  A    between atoms: _574  and  _577
REMARK  221  A    between atoms: _577  and  _578
REMARK  222  A    between atoms: _588  and  _590
REMARK  223  A    between atoms: _590  and  _591
REMARK  224  A    between atoms: _593  and  _595
REMARK  225  A    between atoms: _595  and  _596
REMARK  226  A    between atoms: _599  and  _601
REMARK  227  A    between atoms: _601  and  _602
REMARK  228  A    between atoms: _601  and  _604
REMARK  229  A    between atoms: _604  and  _605
REMARK  230  A    between atoms: _610  and  _612
REMARK  231  A    between atoms: _612  and  _613
REMARK  232  A    between atoms: _616  and  _618
REMARK  233  A    between atoms: _618  and  _619
REMARK  234  A    between atoms: _622  and  _623
REMARK  235  A    between atoms: _628  and  _630
REMARK  236  A    between atoms: _630  and  _631
REMARK  237  A    between atoms: _630  and  _633
REMARK  238  A    between atoms: _633  and  _634
REMARK  239  A    between atoms: _637  and  _639
REMARK  240  A    between atoms: _639  and  _640
REMARK  241  A    between atoms: _639  and  _642
REMARK  242  A    between atoms: _642  and  _643
REMARK  243  A    between atoms: _653  and  _655
REMARK  244  A    between atoms: _655  and  _656
REMARK  245  A    between atoms: _655  and  _658
REMARK  246  A    between atoms: _658  and  _659
REMARK  247  A    between atoms: _664  and  _666
REMARK  248  A    between atoms: _666  and  _667
REMARK  249  A    between atoms: _666  and  _669
REMARK  250  A    between atoms: _669  and  _670
REMARK  251  A    between atoms: _673  and  _675
REMARK  252  A    between atoms: _675  and  _676
REMARK  253  A    between atoms: _675  and  _678
REMARK  254  A    between atoms: _678  and  _679
REMARK  255  A    between atoms: _679  and  _680
REMARK  256  A    between atoms: _683  and  _685
REMARK  257  A    between atoms: _685  and  _686
REMARK  258  A    between atoms: _685  and  _688
REMARK  259  A    between atoms: _688  and  _689
REMARK  260  A    between atoms: _689  and  _690
REMARK  261  A    between atoms: _690  and  _691
REMARK  262  A    between atoms: _691  and  _692
REMARK  263  A    between atoms: _696  and  _698
REMARK  264  A    between atoms: _698  and  _699
REMARK  265  A    between atoms: _698  and  _701
REMARK  266  A    between atoms: _701  and  _702
REMARK  267  A    between atoms: _707  and  _709
REMARK  268  A    between atoms: _709  and  _710
REMARK  269  A    between atoms: _709  and  _712
REMARK  270  A    between atoms: _712  and  _713
REMARK  271  A    between atoms: _713  and  _714
REMARK  272  A    between atoms: _714  and  _715
REMARK  273  A    between atoms: _724  and  _726
REMARK  274  A    between atoms: _726  and  _727
REMARK  275  A    between atoms: _726  and  _729
REMARK  276  A    between atoms: _729  and  _730
REMARK  277  A    between atoms: _733  and  _735
REMARK  278  A    between atoms: _735  and  _736
REMARK  279  A    between atoms: _735  and  _738
REMARK  280  A    between atoms: _741  and  _743
REMARK  281  A    between atoms: _743  and  _744
REMARK  282  A    between atoms: _743  and  _746
REMARK  283  A    between atoms: _746  and  _747
REMARK  284  A    between atoms: _747  and  _748
REMARK  285  A    between atoms: _754  and  _755
REMARK  286  A    between atoms: _760  and  _762
REMARK  287  A    between atoms: _762  and  _763
REMARK  288  A    between atoms: _762  and  _765
REMARK  289  A    between atoms: _765  and  _766
REMARK  290  A    between atoms: _769  and  _771
REMARK  291  A    between atoms: _771  and  _772
REMARK  292  A    between atoms: _771  and  _774
REMARK  293  A    between atoms: _774  and  _775
REMARK  294  A    between atoms: _775  and  _776
REMARK  295  A    between atoms: _776  and  _777
REMARK  296  A    between atoms: _786  and  _788
REMARK  297  A    between atoms: _788  and  _789
REMARK                            x       y       z     vdW  Elec       q    Type
REMARK                         _______ _______ _______ _____ _____    ______ ____
ROOT
ATOM      1  C   ARG A   1      16.171  13.510 -33.349  0.00  0.00    +0.238 C 
ATOM      2  O   ARG A   1      16.418  14.690 -33.114  0.00  0.00    -0.274 OA
ATOM      3  N   TYR A   2      17.001  12.720 -34.021  0.00  0.00    -0.298 N 
ATOM      4  H   TYR A   2      16.698  11.759 -34.277  0.00  0.00    +0.150 HD
ENDROOT
BRANCH   1   5
ATOM      5  CA  ARG A   1      14.844  12.911 -32.921  0.00  0.00    +0.145 C 
BRANCH   5   6
ATOM      6  N   ARG A   1      14.272  11.915 -33.807  0.00  0.00    -0.238 NA
ATOM      7  H   ARG A   1      14.472  10.909 -33.635  0.00  0.00    +0.142 HD
ENDBRANCH   5   6
BRANCH   5   8
ATOM      8  CB  ARG A   1      14.971  12.298 -31.524  0.00  0.00    +0.030 C 
BRANCH   8   9
ATOM      9  CG  ARG A   1      15.427  13.250 -30.438  0.00  0.00    +0.045 C 
BRANCH   9  10
ATOM     10  CD  ARG A   1      15.474  12.545 -29.085  0.00  0.00    +0.174 C 
BRANCH  10  11
ATOM     11  NE  ARG A   1      14.155  12.132 -28.619  0.00  0.00    -0.265 N 
ATOM     12  CZ  ARG A   1      13.286  12.944 -28.030  0.00  0.00    +0.342 C 
ATOM     13  NH2 ARG A   1      12.111  12.482 -27.634  0.00  0.00    -0.292 N 
ATOM     14 HH21 ARG A   1      11.431  13.119 -27.173  0.00  0.00    +0.255 HD
ATOM     15 HH22 ARG A   1      11.868  11.482 -27.784  0.00  0.00    +0.255 HD
ATOM     16  NH1 ARG A   1      13.593  14.220 -27.832  0.00  0.00    -0.292 N 
ATOM     17 HH11 ARG A   1      12.910  14.854 -27.370  0.00  0.00    +0.255 HD
ATOM     18 HH12 ARG A   1      14.517  14.586 -28.139  0.00  0.00    +0.255 HD
ATOM     19  HE  ARG A   1      13.878  11.139 -28.757  0.00  0.00    +0.259 HD
ENDBRANCH  10  11
ENDBRANCH   9  10
ENDBRANCH   8   9
ENDBRANCH   5   8
ENDBRANCH   1   5
BRANCH   3  20
ATOM     20  CA  TYR A   2      18.328  13.179 -34.404  0.00  0.00    +0.141 C 
BRANCH  20  21
ATOM     21  C   TYR A   2      18.630  13.327 -35.886  0.00  0.00    +0.227 C 
ATOM     22  O   TYR A   2      18.038  12.650 -36.713  0.00  0.00    -0.286 OA
ENDBRANCH  20  21
BRANCH  20  23
ATOM     23  CB  TYR A   2      19.361  12.235 -33.795  0.00  0.00    +0.054 C 
BRANCH  23  24
ATOM     24  CG  TYR A   2      19.250  12.089 -32.288  0.00  0.00    -0.020 A 
ATOM     25  CD2 TYR A   2      19.718  13.086 -31.428  0.00  0.00    -0.001 A 
ATOM     26  CE2 TYR A   2      19.598  12.956 -30.052  0.00  0.00    +0.036 A 
ATOM     27  CZ  TYR A   2      19.005  11.814 -29.523  0.00  0.00    +0.134 A 
ATOM     28  CE1 TYR A   2      18.534  10.815 -30.359  0.00  0.00    +0.036 A 
ATOM     29  CD1 TYR A   2      18.658  10.956 -31.727  0.00  0.00    -0.001 A 
BRANCH  27  30
ATOM     30  OH  TYR A   2      18.890  11.656 -28.158  0.00  0.00    -0.506 OA
ATOM     31  HH  TYR A   2      19.384  10.845 -27.878  0.00  0.00    +0.292 HD
ENDBRANCH  27  30
ENDBRANCH  23  24
ENDBRANCH  20  23
ENDBRANCH   3  20
TORSDOF 11
REMARK  Name = ../refined-set-2016/3o4k/3o4k_pocket.pdb
REMARK  297 active torsions:
REMARK  status: ('A' for Active; 'I' for Inactive)
REMARK    1  A    between atoms: _1  and  _3
REMARK    2  A    between atoms: _3  and  _4
REMARK    3  A    between atoms: _3  and  _6
REMARK    4  A    between atoms: _6  and  _7
REMARK    5  A    between atoms: _7  and  _8
REMARK    6  A    between atoms: _8  and  _9
REMARK    7  A    between atoms: _18  and  _20
REMARK    8  A    between atoms: _20  and  _21
REMARK    9  A    between atoms: _20  and  _23
REMARK   10  A    between atoms: _23  and  _24
REMARK   11  A    between atoms: _29  and  _30
REMARK   12  A    between atoms: _32  and  _34
REMARK   13  A    between atoms: _34  and  _35
REMARK   14  A    between atoms: _34  and  _37
REMARK   15  A    between atoms: _37  and  _38
REMARK   16  A    between atoms: _48  and  _50
REMARK   17  A    between atoms: _50  and  _51
REMARK   18  A    between atoms: _50  and  _53
REMARK   19  A    between atoms: _53  and  _54
REMARK   20  A    between atoms: _54  and  _55
REMARK   21  A    between atoms: _55  and  _56
REMARK   22  A    between atoms: _65  and  _67
REMARK   23  A    between atoms: _67  and  _68
REMARK   24  A    between atoms: _67  and  _70
REMARK   25  A    between atoms: _70  and  _71
REMARK   26  A    between atoms: _73  and  _75
REMARK   27  A    between atoms: _75  and  _76
REMARK   28  A    between atoms: _75  and  _78
REMARK   29  A    between atoms: _78  and  _79
REMARK   30  A    between atoms: _84  and  _86
REMARK   31  A    between atoms: _86  and  _87
REMARK   32  A    between atoms: _86  and  _89
REMARK   33  A    between atoms: _89  and  _90
REMARK   34  A    between atoms: _95  and  _96
REMARK   35  A    between atoms: _98  and  _100
REMARK   36  A    between atoms: _100  and  _101
REMARK   37  A    between atoms: _100  and  _103
REMARK   38  A    between atoms: _103  and  _104
REMARK   39  A    between atoms: _104  and  _105
REMARK   40  A    between atoms: _108  and  _110
REMARK   41  A    between atoms: _110  and  _111
REMARK   42  A    between atoms: _110  and  _113
REMARK   43  A    between atoms: _116  and  _118
REMARK   44  A    between atoms: _118  and  _119
REMARK   45  A    between atoms: _118  and  _121
REMARK   46  A    between atoms: _121  and  _122
REMARK   47  A    between atoms: _122  and  _123
REMARK   48  A    between atoms: _123  and  _124
REMARK   49  A    between atoms: _124  and  _125
REMARK   50  A    between atoms: _129  and  _131
REMARK   51  A    between atoms: _131  and  _132
REMARK   52  A    between atoms: _131  and  _134
REMARK   53  A    between atoms: _134  and  _135
REMARK   54  A    between atoms: _140  and  _142
REMARK   55  A    between atoms: _142  and  _143
REMARK   56  A    between atoms: _142  and  _145
REMARK   57  A    between atoms: _145  and  _146
REMARK   58  A    between atoms: _151  and  _152
REMARK   59  A    between atoms: _154  and  _156
REMARK   60  A    between atoms: _156  and  _157
REMARK   61  A    between atoms: _156  and  _159
REMARK   62  A    between atoms: _159  and  _160
REMARK   63  A    between atoms: _160  and  _161
REMARK   64  A    between atoms: _161  and  _162
REMARK   65  A    between atoms: _171  and  _173
REMARK   66  A    between atoms: _173  and  _174
REMARK   67  A    between atoms: _178  and  _180
REMARK   68  A    between atoms: _180  and  _181
REMARK   69  A    between atoms: _180  and  _183
REMARK   70  A    between atoms: _183  and  _184
REMARK   71  A    between atoms: _186  and  _188
REMARK   72  A    between atoms: _188  and  _189
REMARK   73  A    between atoms: _188  and  _191
REMARK   74  A    between atoms: _191  and  _192
REMARK   75  A    between atoms: _192  and  _193
REMARK   76  A    between atoms: _196  and  _198
REMARK   77  A    between atoms: _198  and  _199
REMARK   78  A    between atoms: _198  and  _201
REMARK   79  A    between atoms: _201  and  _202
REMARK   80  A    between atoms: _202  and  _352
REMARK   81  A    between atoms: _203  and  _205
REMARK   82  A    between atoms: _205  and  _206
REMARK   83  A    between atoms: _205  and  _208
REMARK   84  A    between atoms: _208  and  _209
REMARK   85  A    between atoms: _209  and  _210
REMARK   86  A    between atoms: _210  and  _211
REMARK   87  A    between atoms: _220  and  _222
REMARK   88  A    between atoms: _222  and  _223
REMARK   89  A    between atoms: _222  and  _225
REMARK   90  A    between atoms: _225  and  _226
REMARK   91  A    between atoms: _226  and  _227
REMARK   92  A    between atoms: _230  and  _232
REMARK   93  A    between atoms: _232  and  _233
REMARK   94  A    between atoms: _232  and  _235
REMARK   95  A    between atoms: _235  and  _236
REMARK   96  A    between atoms: _236  and  _237
REMARK   97  A    between atoms: _237  and  _238
REMARK   98  A    between atoms: _247  and  _249
REMARK   99  A    between atoms: _249  and  _250
REMARK  100  A    between atoms: _249  and  _252
REMARK  101  A    between atoms: _252  and  _253
REMARK  102  A    between atoms: _255  and  _257
REMARK  103  A    between atoms: _257  and  _258
REMARK  104  A    between atoms: _257  and  _260
REMARK  105  A    between atoms: _260  and  _261
REMARK  106  A    between atoms: _266  and  _267
REMARK  107  A    between atoms: _269  and  _271
REMARK  108  A    between atoms: _271  and  _272
REMARK  109  A    between atoms: _271  and  _274
REMARK  110  A    between atoms: _274  and  _275
REMARK  111  A    between atoms: _280  and  _282
REMARK  112  A    between atoms: _282  and  _283
REMARK  113  A    between atoms: _282  and  _285
REMARK  114  A    between atoms: _288  and  _290
REMARK  115  A    between atoms: _290  and  _291
REMARK  116  A    between atoms: _290  and  _293
REMARK  117  A    between atoms: _293  and  _294
REMARK  118  A    between atoms: _294  and  _295
REMARK  119  A    between atoms: _295  and  _296
REMARK  120  A    between atoms: _305  and  _307
REMARK  121  A    between atoms: _307  and  _308
REMARK  122  A    between atoms: _307  and  _310
REMARK  123  A    between atoms: _310  and  _311
REMARK  124  A    between atoms: _316  and  _318
REMARK  125  A    between atoms: _318  and  _319
REMARK  126  A    between atoms: _318  and  _321
REMARK  127  A    between atoms: _321  and  _322
REMARK  128  A    between atoms: _325  and  _327
REMARK  129  A    between atoms: _327  and  _328
REMARK  130  A    between atoms: _330  and  _332
REMARK  131  A    between atoms: _332  and  _333
REMARK  132  A    between atoms: _332  and  _335
REMARK  133  A    between atoms: _335  and  _336
REMARK  134  A    between atoms: _346  and  _348
REMARK  135  A    between atoms: _348  and  _349
REMARK  136  A    between atoms: _348  and  _351
REMARK  137  A    between atoms: _351  and  _352
REMARK  138  A    between atoms: _353  and  _355
REMARK  139  A    between atoms: _355  and  _356
REMARK  140  A    between atoms: _355  and  _358
REMARK  141  A    between atoms: _358  and  _359
REMARK  142  A    between atoms: _362  and  _364
REMARK  143  A    between atoms: _364  and  _365
REMARK  144  A    between atoms: _367  and  _369
REMARK  145  A    between atoms: _369  and  _370
REMARK  146  A    between atoms: _369  and  _372
REMARK  147  A    between atoms: _372  and  _373
REMARK  148  A    between atoms: _378  and  _379
REMARK  149  A    between atoms: _381  and  _383
REMARK  150  A    between atoms: _383  and  _384
REMARK  151  A    between atoms: _383  and  _386
REMARK  152  A    between atoms: _386  and  _387
REMARK  153  A    between atoms: _387  and  _388
REMARK  154  A    between atoms: _388  and  _389
REMARK  155  A    between atoms: _398  and  _400
REMARK  156  A    between atoms: _400  and  _401
REMARK  157  A    between atoms: _400  and  _403
REMARK  158  A    between atoms: _403  and  _404
REMARK  159  A    between atoms: _407  and  _409
REMARK  160  A    between atoms: _409  and  _410
REMARK  161  A    between atoms: _409  and  _412
REMARK  162  A    between atoms: _412  and  _413
REMARK  163  A    between atoms: _413  and  _414
REMARK  164  A    between atoms: _414  and  _415
REMARK  165  A    between atoms: _415  and  _416
REMARK  166  A    between atoms: _420  and  _422
REMARK  167  A    between atoms: _422  and  _423
REMARK  168  A    between atoms: _425  and  _427
REMARK  169  A    between atoms: _427  and  _428
REMARK  170  A    between atoms: _431  and  _433
REMARK  171  A    between atoms: _433  and  _434
REMARK  172  A    between atoms: _433  and  _436
REMARK  173  A    between atoms: _436  and  _437
REMARK  174  A    between atoms: _442  and  _444
REMARK  175  A    between atoms: _444  and  _445
REMARK  176  A    between atoms: _448  and  _450
REMARK  177  A    between atoms: _450  and  _451
REMARK  178  A    between atoms: _454  and  _455
REMARK  179  A    between atoms: _460  and  _462
REMARK  180  A    between atoms: _462  and  _463
REMARK  181  A    between atoms: _462  and  _465
REMARK  182  A    between atoms: _465  and  _466
REMARK  183  A    between atoms: _469  and  _471
REMARK  184  A    between atoms: _471  and  _472
REMARK  185  A    between atoms: _471  and  _474
REMARK  186  A    between atoms: _474  and  _475
REMARK  187  A    between atoms: _485  and  _487
REMARK  188  A    between atoms: _487  and  _488
REMARK  189  A    between atoms: _487  and  _490
REMARK  190  A    between atoms: _490  and  _491
REMARK  191  A    between atoms: _497  and  _498
REMARK  192  A    between atoms: _503  and  _505
REMARK  193  A    between atoms: _505  and  _506
REMARK  194  A    between atoms: _505  and  _508
REMARK  195  A    between atoms: _508  and  _509
REMARK  196  A    between atoms: _514  and  _516
REMARK  197  A    between atoms: _516  and  _517
REMARK  198  A    between atoms: _516  and  _519
REMARK  199  A    between atoms: _522  and  _524
REMARK  200  A    between atoms: _524  and  _525
REMARK  201  A    between atoms: _524  and  _527
REMARK  202  A    between atoms: _527  and  _528
REMARK  203  A    between atoms: _528  and  _529
REMARK  204  A    between atoms: _535  and  _536
REMARK  205  A    between atoms: _541  and  _543
REMARK  206  A    between atoms: _543  and  _544
REMARK  207  A    between atoms: _543  and  _546
REMARK  208  A    between atoms: _546  and  _547
REMARK  209  A    between atoms: _550  and  _552
REMARK  210  A    between atoms: _552  and  _553
REMARK  211  A    between atoms: _552  and  _555
REMARK  212  A    between atoms: _555  and  _556
REMARK  213  A    between atoms: _558  and  _560
REMARK  214  A    between atoms: _560  and  _561
REMARK  215  A    between atoms: _560  and  _563
REMARK  216  A    between atoms: _563  and  _564
REMARK  217  A    between atoms: _569  and  _570
REMARK  218  A    between atoms: _572  and  _574
REMARK  219  A    between atoms: _574  and  _575
REMARK  220  A    between atoms: _574  and  _577
REMARK  221  A    between atoms: _577  and  _578
REMARK  222  A    between atoms: _588  and  _590
REMARK  223  A    between atoms: _590  and  _591
REMARK  224  A    between atoms: _593  and  _595
REMARK  225  A    between atoms: _595  and  _596
REMARK  226  A    between atoms: _599  and  _601
REMARK  227  A    between atoms: _601  and  _602
REMARK  228  A    between atoms: _601  and  _604
REMARK  229  A    between atoms: _604  and  _605
REMARK  230  A    between atoms: _610  and  _612
REMARK  231  A    between atoms: _612  and  _613
REMARK  232  A    between atoms: _616  and  _618
REMARK  233  A    between atoms: _618  and  _619
REMARK  234  A    between atoms: _622  and  _623
REMARK  235  A    between atoms: _628  and  _630
REMARK  236  A    between atoms: _630  and  _631
REMARK  237  A    between atoms: _630  and  _633
REMARK  238  A    between atoms: _633  and  _634
REMARK  239  A    between atoms: _637  and  _639
REMARK  240  A    between atoms: _639  and  _640
REMARK  241  A    between atoms: _639  and  _642
REMARK  242  A    between atoms: _642  and  _643
REMARK  243  A    between atoms: _653  and  _655
REMARK  244  A    between atoms: _655  and  _656
REMARK  245  A    between atoms: _655  and  _658
REMARK  246  A    between atoms: _658  and  _659
REMARK  247  A    between atoms: _664  and  _666
REMARK  248  A    between atoms: _666  and  _667
REMARK  249  A    between atoms: _666  and  _669
REMARK  250  A    between atoms: _669  and  _670
REMARK  251  A    between atoms: _673  and  _675
REMARK  252  A    between atoms: _675  and  _676
REMARK  253  A    between atoms: _675  and  _678
REMARK  254  A    between atoms: _678  and  _679
REMARK  255  A    between atoms: _679  and  _680
REMARK  256  A    between atoms: _683  and  _685
REMARK  257  A    between atoms: _685  and  _686
REMARK  258  A    between atoms: _685  and  _688
REMARK  259  A    between atoms: _688  and  _689
REMARK  260  A    between atoms: _689  and  _690
REMARK  261  A    between atoms: _690  and  _691
REMARK  262  A    between atoms: _691  and  _692
REMARK  263  A    between atoms: _696  and  _698
REMARK  264  A    between atoms: _698  and  _699
REMARK  265  A    between atoms: _698  and  _701
REMARK  266  A    between atoms: _701  and  _702
REMARK  267  A    between atoms: _707  and  _709
REMARK  268  A    between atoms: _709  and  _710
REMARK  269  A    between atoms: _709  and  _712
REMARK  270  A    between atoms: _712  and  _713
REMARK  271  A    between atoms: _713  and  _714
REMARK  272  A    between atoms: _714  and  _715
REMARK  273  A    between atoms: _724  and  _726
REMARK  274  A    between atoms: _726  and  _727
REMARK  275  A    between atoms: _726  and  _729
REMARK  276  A    between atoms: _729  and  _730
REMARK  277  A    between atoms: _733  and  _735
REMARK  278  A    between atoms: _735  and  _736
REMARK  279  A    between atoms: _735  and  _738
REMARK  280  A    between atoms: _741  and  _743
REMARK  281  A    between atoms: _743  and  _744
REMARK  282  A    between atoms: _743  and  _746
REMARK  283  A    between atoms: _746  and  _747
REMARK  284  A    between atoms: _747  and  _748
REMARK  285  A    between atoms: _754  and  _755
REMARK  286  A    between atoms: _760  and  _762
REMARK  287  A    between atoms: _762  and  _763
REMARK  288  A    between atoms: _762  and  _765
REMARK  289  A    between atoms: _765  and  _766
REMARK  290  A    between atoms: _769  and  _771
REMARK  291  A    between atoms: _771  and  _772
REMARK  292  A    between atoms: _771  and  _774
REMARK  293  A    between atoms: _774  and  _775
REMARK  294  A    between atoms: _775  and  _776
REMARK  295  A    between atoms: _776  and  _777
REMARK  296  A    between atoms: _786  and  _788
REMARK  297  A    between atoms: _788  and  _789
REMARK                            x       y       z     vdW  Elec       q    Type
REMARK                         _______ _______ _______ _____ _____    ______ ____
ROOT
ATOM      1  CG  TRP A   1      24.224   7.847 -33.295  0.00  0.00    -0.002 A 
ATOM      2  CD2 TRP A   1      23.690   8.891 -32.475  0.00  0.00    +0.013 A 
ATOM      3  CE2 TRP A   1      24.485   8.955 -31.310  0.00  0.00    +0.056 A 
ATOM      4  CZ2 TRP A   1      24.236   9.866 -30.285  0.00  0.00    +0.017 A 
ATOM      5  CH2 TRP A   1      23.172  10.719 -30.441  0.00  0.00    +0.001 A 
ATOM      6  CZ3 TRP A   1      22.363  10.681 -31.591  0.00  0.00    +0.000 A 
ATOM      7  NE1 TRP A   1      25.459   8.002 -31.426  0.00  0.00    -0.352 N 
ATOM      8  HE1 TRP A   1      26.202   7.808 -30.725  0.00  0.00    +0.166 HD
ATOM      9  CE3 TRP A   1      22.612   9.776 -32.609  0.00  0.00    +0.001 A 
ATOM     10  CD1 TRP A   1      25.295   7.343 -32.621  0.00  0.00    +0.068 A 
ENDROOT
BRANCH   1  11
ATOM     11  CB  TRP A   1      23.645   7.336 -34.574  0.00  0.00    +0.053 C 
BRANCH  11  12
ATOM     12  CA  TRP A   1      22.716   6.135 -34.368  0.00  0.00    +0.137 C 
BRANCH  12  13
ATOM     13  N   TRP A   1      23.485   5.018 -33.834  0.00  0.00    -0.239 NA
ATOM     14  H   TRP A   1      24.472   4.900 -34.140  0.00  0.00    +0.142 HD
ENDBRANCH  12  13
BRANCH  12  15
ATOM     15  C   TRP A   1      21.909   5.876 -35.635  0.00  0.00    +0.224 C 
ATOM     16  O   TRP A   1      20.853   6.489 -35.815  0.00  0.00    -0.287 OA
ENDBRANCH  12  15
ENDBRANCH  11  12
ENDBRANCH   1  11
TORSDOF 4
REMARK  Name = ../refined-set-2016/3o4k/3o4k_pocket.pdb
REMARK  297 active torsions:
REMARK  status: ('A' for Active; 'I' for Inactive)
REMARK    1  A    between atoms: _1  and  _3
REMARK    2  A    between atoms: _3  and  _4
REMARK    3  A    between atoms: _3  and  _6
REMARK    4  A    between atoms: _6  and  _7
REMARK    5  A    between atoms: _7  and  _8
REMARK    6  A    between atoms: _8  and  _9
REMARK    7  A    between atoms: _18  and  _20
REMARK    8  A    between atoms: _20  and  _21
REMARK    9  A    between atoms: _20  and  _23
REMARK   10  A    between atoms: _23  and  _24
REMARK   11  A    between atoms: _29  and  _30
REMARK   12  A    between atoms: _32  and  _34
REMARK   13  A    between atoms: _34  and  _35
REMARK   14  A    between atoms: _34  and  _37
REMARK   15  A    between atoms: _37  and  _38
REMARK   16  A    between atoms: _48  and  _50
REMARK   17  A    between atoms: _50  and  _51
REMARK   18  A    between atoms: _50  and  _53
REMARK   19  A    between atoms: _53  and  _54
REMARK   20  A    between atoms: _54  and  _55
REMARK   21  A    between atoms: _55  and  _56
REMARK   22  A    between atoms: _65  and  _67
REMARK   23  A    between atoms: _67  and  _68
REMARK   24  A    between atoms: _67  and  _70
REMARK   25  A    between atoms: _70  and  _71
REMARK   26  A    between atoms: _73  and  _75
REMARK   27  A    between atoms: _75  and  _76
REMARK   28  A    between atoms: _75  and  _78
REMARK   29  A    between atoms: _78  and  _79
REMARK   30  A    between atoms: _84  and  _86
REMARK   31  A    between atoms: _86  and  _87
REMARK   32  A    between atoms: _86  and  _89
REMARK   33  A    between atoms: _89  and  _90
REMARK   34  A    between atoms: _95  and  _96
REMARK   35  A    between atoms: _98  and  _100
REMARK   36  A    between atoms: _100  and  _101
REMARK   37  A    between atoms: _100  and  _103
REMARK   38  A    between atoms: _103  and  _104
REMARK   39  A    between atoms: _104  and  _105
REMARK   40  A    between atoms: _108  and  _110
REMARK   41  A    between atoms: _110  and  _111
REMARK   42  A    between atoms: _110  and  _113
REMARK   43  A    between atoms: _116  and  _118
REMARK   44  A    between atoms: _118  and  _119
REMARK   45  A    between atoms: _118  and  _121
REMARK   46  A    between atoms: _121  and  _122
REMARK   47  A    between atoms: _122  and  _123
REMARK   48  A    between atoms: _123  and  _124
REMARK   49  A    between atoms: _124  and  _125
REMARK   50  A    between atoms: _129  and  _131
REMARK   51  A    between atoms: _131  and  _132
REMARK   52  A    between atoms: _131  and  _134
REMARK   53  A    between atoms: _134  and  _135
REMARK   54  A    between atoms: _140  and  _142
REMARK   55  A    between atoms: _142  and  _143
REMARK   56  A    between atoms: _142  and  _145
REMARK   57  A    between atoms: _145  and  _146
REMARK   58  A    between atoms: _151  and  _152
REMARK   59  A    between atoms: _154  and  _156
REMARK   60  A    between atoms: _156  and  _157
REMARK   61  A    between atoms: _156  and  _159
REMARK   62  A    between atoms: _159  and  _160
REMARK   63  A    between atoms: _160  and  _161
REMARK   64  A    between atoms: _161  and  _162
REMARK   65  A    between atoms: _171  and  _173
REMARK   66  A    between atoms: _173  and  _174
REMARK   67  A    between atoms: _178  and  _180
REMARK   68  A    between atoms: _180  and  _181
REMARK   69  A    between atoms: _180  and  _183
REMARK   70  A    between atoms: _183  and  _184
REMARK   71  A    between atoms: _186  and  _188
REMARK   72  A    between atoms: _188  and  _189
REMARK   73  A    between atoms: _188  and  _191
REMARK   74  A    between atoms: _191  and  _192
REMARK   75  A    between atoms: _192  and  _193
REMARK   76  A    between atoms: _196  and  _198
REMARK   77  A    between atoms: _198  and  _199
REMARK   78  A    between atoms: _198  and  _201
REMARK   79  A    between atoms: _201  and  _202
REMARK   80  A    between atoms: _202  and  _352
REMARK   81  A    between atoms: _203  and  _205
REMARK   82  A    between atoms: _205  and  _206
REMARK   83  A    between atoms: _205  and  _208
REMARK   84  A    between atoms: _208  and  _209
REMARK   85  A    between atoms: _209  and  _210
REMARK   86  A    between atoms: _210  and  _211
REMARK   87  A    between atoms: _220  and  _222
REMARK   88  A    between atoms: _222  and  _223
REMARK   89  A    between atoms: _222  and  _225
REMARK   90  A    between atoms: _225  and  _226
REMARK   91  A    between atoms: _226  and  _227
REMARK   92  A    between atoms: _230  and  _232
REMARK   93  A    between atoms: _232  and  _233
REMARK   94  A    between atoms: _232  and  _235
REMARK   95  A    between atoms: _235  and  _236
REMARK   96  A    between atoms: _236  and  _237
REMARK   97  A    between atoms: _237  and  _238
REMARK   98  A    between atoms: _247  and  _249
REMARK   99  A    between atoms: _249  and  _250
REMARK  100  A    between atoms: _249  and  _252
REMARK  101  A    between atoms: _252  and  _253
REMARK  102  A    between atoms: _255  and  _257
REMARK  103  A    between atoms: _257  and  _258
REMARK  104  A    between atoms: _257  and  _260
REMARK  105  A    between atoms: _260  and  _261
REMARK  106  A    between atoms: _266  and  _267
REMARK  107  A    between atoms: _269  and  _271
REMARK  108  A    between atoms: _271  and  _272
REMARK  109  A    between atoms: _271  and  _274
REMARK  110  A    between atoms: _274  and  _275
REMARK  111  A    between atoms: _280  and  _282
REMARK  112  A    between atoms: _282  and  _283
REMARK  113  A    between atoms: _282  and  _285
REMARK  114  A    between atoms: _288  and  _290
REMARK  115  A    between atoms: _290  and  _291
REMARK  116  A    between atoms: _290  and  _293
REMARK  117  A    between atoms: _293  and  _294
REMARK  118  A    between atoms: _294  and  _295
REMARK  119  A    between atoms: _295  and  _296
REMARK  120  A    between atoms: _305  and  _307
REMARK  121  A    between atoms: _307  and  _308
REMARK  122  A    between atoms: _307  and  _310
REMARK  123  A    between atoms: _310  and  _311
REMARK  124  A    between atoms: _316  and  _318
REMARK  125  A    between atoms: _318  and  _319
REMARK  126  A    between atoms: _318  and  _321
REMARK  127  A    between atoms: _321  and  _322
REMARK  128  A    between atoms: _325  and  _327
REMARK  129  A    between atoms: _327  and  _328
REMARK  130  A    between atoms: _330  and  _332
REMARK  131  A    between atoms: _332  and  _333
REMARK  132  A    between atoms: _332  and  _335
REMARK  133  A    between atoms: _335  and  _336
REMARK  134  A    between atoms: _346  and  _348
REMARK  135  A    between atoms: _348  and  _349
REMARK  136  A    between atoms: _348  and  _351
REMARK  137  A    between atoms: _351  and  _352
REMARK  138  A    between atoms: _353  and  _355
REMARK  139  A    between atoms: _355  and  _356
REMARK  140  A    between atoms: _355  and  _358
REMARK  141  A    between atoms: _358  and  _359
REMARK  142  A    between atoms: _362  and  _364
REMARK  143  A    between atoms: _364  and  _365
REMARK  144  A    between atoms: _367  and  _369
REMARK  145  A    between atoms: _369  and  _370
REMARK  146  A    between atoms: _369  and  _372
REMARK  147  A    between atoms: _372  and  _373
REMARK  148  A    between atoms: _378  and  _379
REMARK  149  A    between atoms: _381  and  _383
REMARK  150  A    between atoms: _383  and  _384
REMARK  151  A    between atoms: _383  and  _386
REMARK  152  A    between atoms: _386  and  _387
REMARK  153  A    between atoms: _387  and  _388
REMARK  154  A    between atoms: _388  and  _389
REMARK  155  A    between atoms: _398  and  _400
REMARK  156  A    between atoms: _400  and  _401
REMARK  157  A    between atoms: _400  and  _403
REMARK  158  A    between atoms: _403  and  _404
REMARK  159  A    between atoms: _407  and  _409
REMARK  160  A    between atoms: _409  and  _410
REMARK  161  A    between atoms: _409  and  _412
REMARK  162  A    between atoms: _412  and  _413
REMARK  163  A    between atoms: _413  and  _414
REMARK  164  A    between atoms: _414  and  _415
REMARK  165  A    between atoms: _415  and  _416
REMARK  166  A    between atoms: _420  and  _422
REMARK  167  A    between atoms: _422  and  _423
REMARK  168  A    between atoms: _425  and  _427
REMARK  169  A    between atoms: _427  and  _428
REMARK  170  A    between atoms: _431  and  _433
REMARK  171  A    between atoms: _433  and  _434
REMARK  172  A    between atoms: _433  and  _436
REMARK  173  A    between atoms: _436  and  _437
REMARK  174  A    between atoms: _442  and  _444
REMARK  175  A    between atoms: _444  and  _445
REMARK  176  A    between atoms: _448  and  _450
REMARK  177  A    between atoms: _450  and  _451
REMARK  178  A    between atoms: _454  and  _455
REMARK  179  A    between atoms: _460  and  _462
REMARK  180  A    between atoms: _462  and  _463
REMARK  181  A    between atoms: _462  and  _465
REMARK  182  A    between atoms: _465  and  _466
REMARK  183  A    between atoms: _469  and  _471
REMARK  184  A    between atoms: _471  and  _472
REMARK  185  A    between atoms: _471  and  _474
REMARK  186  A    between atoms: _474  and  _475
REMARK  187  A    between atoms: _485  and  _487
REMARK  188  A    between atoms: _487  and  _488
REMARK  189  A    between atoms: _487  and  _490
REMARK  190  A    between atoms: _490  and  _491
REMARK  191  A    between atoms: _497  and  _498
REMARK  192  A    between atoms: _503  and  _505
REMARK  193  A    between atoms: _505  and  _506
REMARK  194  A    between atoms: _505  and  _508
REMARK  195  A    between atoms: _508  and  _509
REMARK  196  A    between atoms: _514  and  _516
REMARK  197  A    between atoms: _516  and  _517
REMARK  198  A    between atoms: _516  and  _519
REMARK  199  A    between atoms: _522  and  _524
REMARK  200  A    between atoms: _524  and  _525
REMARK  201  A    between atoms: _524  and  _527
REMARK  202  A    between atoms: _527  and  _528
REMARK  203  A    between atoms: _528  and  _529
REMARK  204  A    between atoms: _535  and  _536
REMARK  205  A    between atoms: _541  and  _543
REMARK  206  A    between atoms: _543  and  _544
REMARK  207  A    between atoms: _543  and  _546
REMARK  208  A    between atoms: _546  and  _547
REMARK  209  A    between atoms: _550  and  _552
REMARK  210  A    between atoms: _552  and  _553
REMARK  211  A    between atoms: _552  and  _555
REMARK  212  A    between atoms: _555  and  _556
REMARK  213  A    between atoms: _558  and  _560
REMARK  214  A    between atoms: _560  and  _561
REMARK  215  A    between atoms: _560  and  _563
REMARK  216  A    between atoms: _563  and  _564
REMARK  217  A    between atoms: _569  and  _570
REMARK  218  A    between atoms: _572  and  _574
REMARK  219  A    between atoms: _574  and  _575
REMARK  220  A    between atoms: _574  and  _577
REMARK  221  A    between atoms: _577  and  _578
REMARK  222  A    between atoms: _588  and  _590
REMARK  223  A    between atoms: _590  and  _591
REMARK  224  A    between atoms: _593  and  _595
REMARK  225  A    between atoms: _595  and  _596
REMARK  226  A    between atoms: _599  and  _601
REMARK  227  A    between atoms: _601  and  _602
REMARK  228  A    between atoms: _601  and  _604
REMARK  229  A    between atoms: _604  and  _605
REMARK  230  A    between atoms: _610  and  _612
REMARK  231  A    between atoms: _612  and  _613
REMARK  232  A    between atoms: _616  and  _618
REMARK  233  A    between atoms: _618  and  _619
REMARK  234  A    between atoms: _622  and  _623
REMARK  235  A    between atoms: _628  and  _630
REMARK  236  A    between atoms: _630  and  _631
REMARK  237  A    between atoms: _630  and  _633
REMARK  238  A    between atoms: _633  and  _634
REMARK  239  A    between atoms: _637  and  _639
REMARK  240  A    between atoms: _639  and  _640
REMARK  241  A    between atoms: _639  and  _642
REMARK  242  A    between atoms: _642  and  _643
REMARK  243  A    between atoms: _653  and  _655
REMARK  244  A    between atoms: _655  and  _656
REMARK  245  A    between atoms: _655  and  _658
REMARK  246  A    between atoms: _658  and  _659
REMARK  247  A    between atoms: _664  and  _666
REMARK  248  A    between atoms: _666  and  _667
REMARK  249  A    between atoms: _666  and  _669
REMARK  250  A    between atoms: _669  and  _670
REMARK  251  A    between atoms: _673  and  _675
REMARK  252  A    between atoms: _675  and  _676
REMARK  253  A    between atoms: _675  and  _678
REMARK  254  A    between atoms: _678  and  _679
REMARK  255  A    between atoms: _679  and  _680
REMARK  256  A    between atoms: _683  and  _685
REMARK  257  A    between atoms: _685  and  _686
REMARK  258  A    between atoms: _685  and  _688
REMARK  259  A    between atoms: _688  and  _689
REMARK  260  A    between atoms: _689  and  _690
REMARK  261  A    between atoms: _690  and  _691
REMARK  262  A    between atoms: _691  and  _692
REMARK  263  A    between atoms: _696  and  _698
REMARK  264  A    between atoms: _698  and  _699
REMARK  265  A    between atoms: _698  and  _701
REMARK  266  A    between atoms: _701  and  _702
REMARK  267  A    between atoms: _707  and  _709
REMARK  268  A    between atoms: _709  and  _710
REMARK  269  A    between atoms: _709  and  _712
REMARK  270  A    between atoms: _712  and  _713
REMARK  271  A    between atoms: _713  and  _714
REMARK  272  A    between atoms: _714  and  _715
REMARK  273  A    between atoms: _724  and  _726
REMARK  274  A    between atoms: _726  and  _727
REMARK  275  A    between atoms: _726  and  _729
REMARK  276  A    between atoms: _729  and  _730
REMARK  277  A    between atoms: _733  and  _735
REMARK  278  A    between atoms: _735  and  _736
REMARK  279  A    between atoms: _735  and  _738
REMARK  280  A    between atoms: _741  and  _743
REMARK  281  A    between atoms: _743  and  _744
REMARK  282  A    between atoms: _743  and  _746
REMARK  283  A    between atoms: _746  and  _747
REMARK  284  A    between atoms: _747  and  _748
REMARK  285  A    between atoms: _754  and  _755
REMARK  286  A    between atoms: _760  and  _762
REMARK  287  A    between atoms: _762  and  _763
REMARK  288  A    between atoms: _762  and  _765
REMARK  289  A    between atoms: _765  and  _766
REMARK  290  A    between atoms: _769  and  _771
REMARK  291  A    between atoms: _771  and  _772
REMARK  292  A    between atoms: _771  and  _774
REMARK  293  A    between atoms: _774  and  _775
REMARK  294  A    between atoms: _775  and  _776
REMARK  295  A    between atoms: _776  and  _777
REMARK  296  A    between atoms: _786  and  _788
REMARK  297  A    between atoms: _788  and  _789
REMARK                            x       y       z     vdW  Elec       q    Type
REMARK                         _______ _______ _______ _____ _____    ______ ____
ROOT
ATOM      1  CA  TYR A   4      14.910  17.536 -33.251  0.00  0.00    +0.153 C 
ENDROOT
BRANCH   1   2
ATOM      2  C   TYR A   4      16.247  18.175 -32.885  0.00  0.00    +0.241 C 
ATOM      3  O   TYR A   4      16.319  19.375 -32.606  0.00  0.00    -0.273 OA
ATOM      4  N   GLU A   5      17.291  17.354 -32.886  0.00  0.00    -0.297 N 
ATOM      5  H   GLU A   5      17.136  16.354 -33.126  0.00  0.00    +0.150 HD
BRANCH   4   6
ATOM      6  CA  GLU A   5      18.639  17.790 -32.567  0.00  0.00    +0.149 C 
BRANCH   6   7
ATOM      7  C   GLU A   5      19.585  17.457 -33.705  0.00  0.00    +0.241 C 
ATOM      8  N   VAL A   6      20.448  18.410 -34.045  0.00  0.00    -0.297 N 
ATOM      9  H   VAL A   6      20.415  19.312 -33.529  0.00  0.00    +0.150 HD
ATOM     10  O   GLU A   5      19.537  16.362 -34.247  0.00  0.00    -0.273 OA
BRANCH   8  11
ATOM     11  CA  VAL A   6      21.439  18.255 -35.104  0.00  0.00    +0.149 C 
BRANCH  11  12
ATOM     12  C   VAL A   6      22.806  17.949 -34.499  0.00  0.00    +0.241 C 
ATOM     13  O   VAL A   6      23.273  18.653 -33.603  0.00  0.00    -0.273 OA
ATOM     14  N   LYS A   7      23.454  16.909 -35.000  0.00  0.00    -0.298 N 
ATOM     15  H   LYS A   7      23.017  16.348 -35.759  0.00  0.00    +0.150 HD
BRANCH  14  16
ATOM     16  CA  LYS A   7      24.769  16.541 -34.502  0.00  0.00    +0.137 C 
BRANCH  16  17
ATOM     17  C   LYS A   7      25.770  16.412 -35.642  0.00  0.00    +0.227 C 
ATOM     18  O   LYS A   7      25.391  16.156 -36.791  0.00  0.00    -0.286 OA
ENDBRANCH  16  17
BRANCH  16  19
ATOM     19  CB  LYS A   7      24.690  15.225 -33.713  0.00  0.00    +0.028 C 
BRANCH  19  20
ATOM     20  CG  LYS A   7      24.032  15.382 -32.337  0.00  0.00    -0.000 C 
BRANCH  20  21
ATOM     21  CD  LYS A   7      24.279  14.189 -31.439  0.00  0.00    -0.024 C 
BRANCH  21  22
ATOM     22  CE  LYS A   7      23.640  14.372 -30.060  0.00  0.00    -0.086 C 
BRANCH  22  23
ATOM     23  NZ  LYS A   7      24.224  15.503 -29.303  0.00  0.00    +0.380 N 
ATOM     24  HZ1 LYS A   7      23.754  15.579 -28.379  0.00  0.00    -0.089 HD
ATOM     25  HZ2 LYS A   7      25.241  15.337 -29.163  0.00  0.00    -0.089 HD
ATOM     26  HZ3 LYS A   7      24.086  16.384 -29.837  0.00  0.00    -0.089 HD
ENDBRANCH  22  23
ENDBRANCH  21  22
ENDBRANCH  20  21
ENDBRANCH  19  20
ENDBRANCH  16  19
ENDBRANCH  14  16
ENDBRANCH  11  12
BRANCH  11  27
ATOM     27  CB  VAL A   6      21.576  19.546 -35.934  0.00  0.00    +0.027 C 
ATOM     28  CG2 VAL A   6      20.300  19.805 -36.712  0.00  0.00    +0.002 C 
ATOM     29  CG1 VAL A   6      22.776  19.438 -36.881  0.00  0.00    +0.002 C 
ENDBRANCH  11  27
ENDBRANCH   8  11
ENDBRANCH   6   7
BRANCH   6  30
ATOM     30  CB  GLU A   5      19.128  17.094 -31.301  0.00  0.00    +0.041 C 
BRANCH  30  31
ATOM     31  CG  GLU A   5      18.710  17.792 -30.028  0.00  0.00    +0.116 C 
BRANCH  31  32
ATOM     32  CD  GLU A   5      18.908  16.950 -28.780  0.00  0.00    +0.365 C 
ATOM     33  OE2 GLU A   5      17.908  16.763 -28.062  0.00  0.00    -0.246 OA
ATOM     34  OE1 GLU A   5      20.047  16.501 -28.504  0.00  0.00    -0.246 OA
ENDBRANCH  31  32
ENDBRANCH  30  31
ENDBRANCH   6  30
ENDBRANCH   4   6
ENDBRANCH   1   2
BRANCH   1  37
ATOM     35  C   ASN A   3      13.742  18.700 -31.483  0.00  0.00    +0.241 C 
ATOM     36  O   ASN A   3      14.451  18.178 -30.619  0.00  0.00    -0.273 OA
ATOM     37  N   TYR A   4      13.883  18.444 -32.780  0.00  0.00    -0.297 N 
ATOM     38  H   TYR A   4      13.248  18.901 -33.465  0.00  0.00    +0.150 HD
BRANCH  35  39
ATOM     39  CA  ASN A   3      12.632  19.685 -31.114  0.00  0.00    +0.158 C 
BRANCH  39  41
ATOM     40  C   SER A   2      11.054  20.163 -32.927  0.00  0.00    +0.243 C 
ATOM     41  N   ASN A   3      11.432  19.402 -31.902  0.00  0.00    -0.297 N 
ATOM     42  H   ASN A   3      10.853  18.575 -31.652  0.00  0.00    +0.150 HD
ATOM     43  O   SER A   2      11.681  21.152 -33.288  0.00  0.00    -0.273 OA
BRANCH  40  44
ATOM     44  CA  SER A   2       9.775  19.736 -33.653  0.00  0.00    +0.178 C 
BRANCH  44  46
ATOM     45  C   ARG A   1      10.591  17.547 -34.168  0.00  0.00    +0.238 C 
ATOM     46  N   SER A   2       9.655  18.291 -33.604  0.00  0.00    -0.295 N 
ATOM     47  H   SER A   2       8.843  17.846 -33.131  0.00  0.00    +0.150 HD
ATOM     48  O   ARG A   1      11.558  18.040 -34.746  0.00  0.00    -0.274 OA
BRANCH  45  49
ATOM     49  CA  ARG A   1      10.421  16.036 -34.058  0.00  0.00    +0.145 C 
BRANCH  49  50
ATOM     50  N   ARG A   1      11.053  15.404 -35.211  0.00  0.00    -0.238 NA
ATOM     51  H   ARG A   1      11.929  14.862 -35.071  0.00  0.00    +0.142 HD
ENDBRANCH  49  50
BRANCH  49  52
ATOM     52  CB  ARG A   1      11.083  15.585 -32.751  0.00  0.00    +0.030 C 
BRANCH  52  53
ATOM     53  CG  ARG A   1      11.066  14.105 -32.483  0.00  0.00    +0.045 C 
BRANCH  53  54
ATOM     54  CD  ARG A   1      11.567  13.838 -31.078  0.00  0.00    +0.174 C 
BRANCH  54  55
ATOM     55  NE  ARG A   1      10.632  14.414 -30.121  0.00  0.00    -0.265 N 
ATOM     56  CZ  ARG A   1       9.565  13.778 -29.647  0.00  0.00    +0.342 C 
ATOM     57  NH2 ARG A   1       8.725  14.408 -28.833  0.00  0.00    -0.292 N 
ATOM     58 HH21 ARG A   1       7.890  13.911 -28.462  0.00  0.00    +0.255 HD
ATOM     59 HH22 ARG A   1       8.902  15.398 -28.567  0.00  0.00    +0.255 HD
ATOM     60  NH1 ARG A   1       9.311  12.530 -30.025  0.00  0.00    -0.292 N 
ATOM     61 HH11 ARG A   1       8.476  12.034 -29.653  0.00  0.00    +0.255 HD
ATOM     62 HH12 ARG A   1       9.947  12.049 -30.693  0.00  0.00    +0.255 HD
ATOM     63  HE  ARG A   1      10.810  15.383 -29.788  0.00  0.00    +0.259 HD
ENDBRANCH  54  55
ENDBRANCH  53  54
ENDBRANCH  52  53
ENDBRANCH  49  52
ENDBRANCH  45  49
ENDBRANCH  44  46
BRANCH  44  64
ATOM     64  CB  SER A   2       8.548  20.392 -33.008  0.00  0.00    +0.166 C 
BRANCH  64  65
ATOM     65  OG  SER A   2       8.345  19.924 -31.686  0.00  0.00    -0.380 OA
ATOM     66  H   SER A   2       8.206  18.944 -31.702  0.00  0.00    +0.211 HD
ENDBRANCH  64  65
ENDBRANCH  44  64
ENDBRANCH  40  44
ENDBRANCH  39  41
BRANCH  39  67
ATOM     67  CB  ASN A   3      12.313  19.587 -29.624  0.00  0.00    +0.114 C 
BRANCH  67  68
ATOM     68  CG  ASN A   3      11.833  18.209 -29.219  0.00  0.00    +0.222 C 
ATOM     69  ND2 ASN A   3      12.029  17.874 -27.950  0.00  0.00    -0.329 N 
ATOM     70 HD21 ASN A   3      12.503  18.537 -27.304  0.00  0.00    +0.145 HD
ATOM     71 HD22 ASN A   3      11.708  16.948 -27.601  0.00  0.00    +0.145 HD
ATOM     72  OD1 ASN A   3      11.273  17.456 -30.031  0.00  0.00    -0.275 OA
ENDBRANCH  67  68
ENDBRANCH  39  67
ENDBRANCH  35  39
ENDBRANCH   1  37
BRANCH   1  73
ATOM     73  CB  TYR A   4      14.799  17.338 -34.775  0.00  0.00    +0.055 C 
BRANCH  73  74
ATOM     74  CG  TYR A   4      15.219  18.542 -35.602  0.00  0.00    -0.020 A 
ATOM     75  CD2 TYR A   4      14.293  19.521 -35.972  0.00  0.00    -0.001 A 
ATOM     76  CE2 TYR A   4      14.673  20.622 -36.740  0.00  0.00    +0.036 A 
ATOM     77  CZ  TYR A   4      15.999  20.753 -37.142  0.00  0.00    +0.134 A 
ATOM     78  CE1 TYR A   4      16.933  19.796 -36.780  0.00  0.00    +0.036 A 
ATOM     79  CD1 TYR A   4      16.540  18.699 -36.016  0.00  0.00    -0.001 A 
BRANCH  77  80
ATOM     80  OH  TYR A   4      16.396  21.828 -37.915  0.00  0.00    -0.506 OA
ATOM     81  HH  TYR A   4      16.215  22.669 -37.426  0.00  0.00    +0.292 HD
ENDBRANCH  77  80
ENDBRANCH  73  74
ENDBRANCH   1  73
TORSDOF 34
REMARK  Name = ../refined-set-2016/3o4k/3o4k_pocket.pdb
REMARK  297 active torsions:
REMARK  status: ('A' for Active; 'I' for Inactive)
REMARK    1  A    between atoms: _1  and  _3
REMARK    2  A    between atoms: _3  and  _4
REMARK    3  A    between atoms: _3  and  _6
REMARK    4  A    between atoms: _6  and  _7
REMARK    5  A    between atoms: _7  and  _8
REMARK    6  A    between atoms: _8  and  _9
REMARK    7  A    between atoms: _18  and  _20
REMARK    8  A    between atoms: _20  and  _21
REMARK    9  A    between atoms: _20  and  _23
REMARK   10  A    between atoms: _23  and  _24
REMARK   11  A    between atoms: _29  and  _30
REMARK   12  A    between atoms: _32  and  _34
REMARK   13  A    between atoms: _34  and  _35
REMARK   14  A    between atoms: _34  and  _37
REMARK   15  A    between atoms: _37  and  _38
REMARK   16  A    between atoms: _48  and  _50
REMARK   17  A    between atoms: _50  and  _51
REMARK   18  A    between atoms: _50  and  _53
REMARK   19  A    between atoms: _53  and  _54
REMARK   20  A    between atoms: _54  and  _55
REMARK   21  A    between atoms: _55  and  _56
REMARK   22  A    between atoms: _65  and  _67
REMARK   23  A    between atoms: _67  and  _68
REMARK   24  A    between atoms: _67  and  _70
REMARK   25  A    between atoms: _70  and  _71
REMARK   26  A    between atoms: _73  and  _75
REMARK   27  A    between atoms: _75  and  _76
REMARK   28  A    between atoms: _75  and  _78
REMARK   29  A    between atoms: _78  and  _79
REMARK   30  A    between atoms: _84  and  _86
REMARK   31  A    between atoms: _86  and  _87
REMARK   32  A    between atoms: _86  and  _89
REMARK   33  A    between atoms: _89  and  _90
REMARK   34  A    between atoms: _95  and  _96
REMARK   35  A    between atoms: _98  and  _100
REMARK   36  A    between atoms: _100  and  _101
REMARK   37  A    between atoms: _100  and  _103
REMARK   38  A    between atoms: _103  and  _104
REMARK   39  A    between atoms: _104  and  _105
REMARK   40  A    between atoms: _108  and  _110
REMARK   41  A    between atoms: _110  and  _111
REMARK   42  A    between atoms: _110  and  _113
REMARK   43  A    between atoms: _116  and  _118
REMARK   44  A    between atoms: _118  and  _119
REMARK   45  A    between atoms: _118  and  _121
REMARK   46  A    between atoms: _121  and  _122
REMARK   47  A    between atoms: _122  and  _123
REMARK   48  A    between atoms: _123  and  _124
REMARK   49  A    between atoms: _124  and  _125
REMARK   50  A    between atoms: _129  and  _131
REMARK   51  A    between atoms: _131  and  _132
REMARK   52  A    between atoms: _131  and  _134
REMARK   53  A    between atoms: _134  and  _135
REMARK   54  A    between atoms: _140  and  _142
REMARK   55  A    between atoms: _142  and  _143
REMARK   56  A    between atoms: _142  and  _145
REMARK   57  A    between atoms: _145  and  _146
REMARK   58  A    between atoms: _151  and  _152
REMARK   59  A    between atoms: _154  and  _156
REMARK   60  A    between atoms: _156  and  _157
REMARK   61  A    between atoms: _156  and  _159
REMARK   62  A    between atoms: _159  and  _160
REMARK   63  A    between atoms: _160  and  _161
REMARK   64  A    between atoms: _161  and  _162
REMARK   65  A    between atoms: _171  and  _173
REMARK   66  A    between atoms: _173  and  _174
REMARK   67  A    between atoms: _178  and  _180
REMARK   68  A    between atoms: _180  and  _181
REMARK   69  A    between atoms: _180  and  _183
REMARK   70  A    between atoms: _183  and  _184
REMARK   71  A    between atoms: _186  and  _188
REMARK   72  A    between atoms: _188  and  _189
REMARK   73  A    between atoms: _188  and  _191
REMARK   74  A    between atoms: _191  and  _192
REMARK   75  A    between atoms: _192  and  _193
REMARK   76  A    between atoms: _196  and  _198
REMARK   77  A    between atoms: _198  and  _199
REMARK   78  A    between atoms: _198  and  _201
REMARK   79  A    between atoms: _201  and  _202
REMARK   80  A    between atoms: _202  and  _352
REMARK   81  A    between atoms: _203  and  _205
REMARK   82  A    between atoms: _205  and  _206
REMARK   83  A    between atoms: _205  and  _208
REMARK   84  A    between atoms: _208  and  _209
REMARK   85  A    between atoms: _209  and  _210
REMARK   86  A    between atoms: _210  and  _211
REMARK   87  A    between atoms: _220  and  _222
REMARK   88  A    between atoms: _222  and  _223
REMARK   89  A    between atoms: _222  and  _225
REMARK   90  A    between atoms: _225  and  _226
REMARK   91  A    between atoms: _226  and  _227
REMARK   92  A    between atoms: _230  and  _232
REMARK   93  A    between atoms: _232  and  _233
REMARK   94  A    between atoms: _232  and  _235
REMARK   95  A    between atoms: _235  and  _236
REMARK   96  A    between atoms: _236  and  _237
REMARK   97  A    between atoms: _237  and  _238
REMARK   98  A    between atoms: _247  and  _249
REMARK   99  A    between atoms: _249  and  _250
REMARK  100  A    between atoms: _249  and  _252
REMARK  101  A    between atoms: _252  and  _253
REMARK  102  A    between atoms: _255  and  _257
REMARK  103  A    between atoms: _257  and  _258
REMARK  104  A    between atoms: _257  and  _260
REMARK  105  A    between atoms: _260  and  _261
REMARK  106  A    between atoms: _266  and  _267
REMARK  107  A    between atoms: _269  and  _271
REMARK  108  A    between atoms: _271  and  _272
REMARK  109  A    between atoms: _271  and  _274
REMARK  110  A    between atoms: _274  and  _275
REMARK  111  A    between atoms: _280  and  _282
REMARK  112  A    between atoms: _282  and  _283
REMARK  113  A    between atoms: _282  and  _285
REMARK  114  A    between atoms: _288  and  _290
REMARK  115  A    between atoms: _290  and  _291
REMARK  116  A    between atoms: _290  and  _293
REMARK  117  A    between atoms: _293  and  _294
REMARK  118  A    between atoms: _294  and  _295
REMARK  119  A    between atoms: _295  and  _296
REMARK  120  A    between atoms: _305  and  _307
REMARK  121  A    between atoms: _307  and  _308
REMARK  122  A    between atoms: _307  and  _310
REMARK  123  A    between atoms: _310  and  _311
REMARK  124  A    between atoms: _316  and  _318
REMARK  125  A    between atoms: _318  and  _319
REMARK  126  A    between atoms: _318  and  _321
REMARK  127  A    between atoms: _321  and  _322
REMARK  128  A    between atoms: _325  and  _327
REMARK  129  A    between atoms: _327  and  _328
REMARK  130  A    between atoms: _330  and  _332
REMARK  131  A    between atoms: _332  and  _333
REMARK  132  A    between atoms: _332  and  _335
REMARK  133  A    between atoms: _335  and  _336
REMARK  134  A    between atoms: _346  and  _348
REMARK  135  A    between atoms: _348  and  _349
REMARK  136  A    between atoms: _348  and  _351
REMARK  137  A    between atoms: _351  and  _352
REMARK  138  A    between atoms: _353  and  _355
REMARK  139  A    between atoms: _355  and  _356
REMARK  140  A    between atoms: _355  and  _358
REMARK  141  A    between atoms: _358  and  _359
REMARK  142  A    between atoms: _362  and  _364
REMARK  143  A    between atoms: _364  and  _365
REMARK  144  A    between atoms: _367  and  _369
REMARK  145  A    between atoms: _369  and  _370
REMARK  146  A    between atoms: _369  and  _372
REMARK  147  A    between atoms: _372  and  _373
REMARK  148  A    between atoms: _378  and  _379
REMARK  149  A    between atoms: _381  and  _383
REMARK  150  A    between atoms: _383  and  _384
REMARK  151  A    between atoms: _383  and  _386
REMARK  152  A    between atoms: _386  and  _387
REMARK  153  A    between atoms: _387  and  _388
REMARK  154  A    between atoms: _388  and  _389
REMARK  155  A    between atoms: _398  and  _400
REMARK  156  A    between atoms: _400  and  _401
REMARK  157  A    between atoms: _400  and  _403
REMARK  158  A    between atoms: _403  and  _404
REMARK  159  A    between atoms: _407  and  _409
REMARK  160  A    between atoms: _409  and  _410
REMARK  161  A    between atoms: _409  and  _412
REMARK  162  A    between atoms: _412  and  _413
REMARK  163  A    between atoms: _413  and  _414
REMARK  164  A    between atoms: _414  and  _415
REMARK  165  A    between atoms: _415  and  _416
REMARK  166  A    between atoms: _420  and  _422
REMARK  167  A    between atoms: _422  and  _423
REMARK  168  A    between atoms: _425  and  _427
REMARK  169  A    between atoms: _427  and  _428
REMARK  170  A    between atoms: _431  and  _433
REMARK  171  A    between atoms: _433  and  _434
REMARK  172  A    between atoms: _433  and  _436
REMARK  173  A    between atoms: _436  and  _437
REMARK  174  A    between atoms: _442  and  _444
REMARK  175  A    between atoms: _444  and  _445
REMARK  176  A    between atoms: _448  and  _450
REMARK  177  A    between atoms: _450  and  _451
REMARK  178  A    between atoms: _454  and  _455
REMARK  179  A    between atoms: _460  and  _462
REMARK  180  A    between atoms: _462  and  _463
REMARK  181  A    between atoms: _462  and  _465
REMARK  182  A    between atoms: _465  and  _466
REMARK  183  A    between atoms: _469  and  _471
REMARK  184  A    between atoms: _471  and  _472
REMARK  185  A    between atoms: _471  and  _474
REMARK  186  A    between atoms: _474  and  _475
REMARK  187  A    between atoms: _485  and  _487
REMARK  188  A    between atoms: _487  and  _488
REMARK  189  A    between atoms: _487  and  _490
REMARK  190  A    between atoms: _490  and  _491
REMARK  191  A    between atoms: _497  and  _498
REMARK  192  A    between atoms: _503  and  _505
REMARK  193  A    between atoms: _505  and  _506
REMARK  194  A    between atoms: _505  and  _508
REMARK  195  A    between atoms: _508  and  _509
REMARK  196  A    between atoms: _514  and  _516
REMARK  197  A    between atoms: _516  and  _517
REMARK  198  A    between atoms: _516  and  _519
REMARK  199  A    between atoms: _522  and  _524
REMARK  200  A    between atoms: _524  and  _525
REMARK  201  A    between atoms: _524  and  _527
REMARK  202  A    between atoms: _527  and  _528
REMARK  203  A    between atoms: _528  and  _529
REMARK  204  A    between atoms: _535  and  _536
REMARK  205  A    between atoms: _541  and  _543
REMARK  206  A    between atoms: _543  and  _544
REMARK  207  A    between atoms: _543  and  _546
REMARK  208  A    between atoms: _546  and  _547
REMARK  209  A    between atoms: _550  and  _552
REMARK  210  A    between atoms: _552  and  _553
REMARK  211  A    between atoms: _552  and  _555
REMARK  212  A    between atoms: _555  and  _556
REMARK  213  A    between atoms: _558  and  _560
REMARK  214  A    between atoms: _560  and  _561
REMARK  215  A    between atoms: _560  and  _563
REMARK  216  A    between atoms: _563  and  _564
REMARK  217  A    between atoms: _569  and  _570
REMARK  218  A    between atoms: _572  and  _574
REMARK  219  A    between atoms: _574  and  _575
REMARK  220  A    between atoms: _574  and  _577
REMARK  221  A    between atoms: _577  and  _578
REMARK  222  A    between atoms: _588  and  _590
REMARK  223  A    between atoms: _590  and  _591
REMARK  224  A    between atoms: _593  and  _595
REMARK  225  A    between atoms: _595  and  _596
REMARK  226  A    between atoms: _599  and  _601
REMARK  227  A    between atoms: _601  and  _602
REMARK  228  A    between atoms: _601  and  _604
REMARK  229  A    between atoms: _604  and  _605
REMARK  230  A    between atoms: _610  and  _612
REMARK  231  A    between atoms: _612  and  _613
REMARK  232  A    between atoms: _616  and  _618
REMARK  233  A    between atoms: _618  and  _619
REMARK  234  A    between atoms: _622  and  _623
REMARK  235  A    between atoms: _628  and  _630
REMARK  236  A    between atoms: _630  and  _631
REMARK  237  A    between atoms: _630  and  _633
REMARK  238  A    between atoms: _633  and  _634
REMARK  239  A    between atoms: _637  and  _639
REMARK  240  A    between atoms: _639  and  _640
REMARK  241  A    between atoms: _639  and  _642
REMARK  242  A    between atoms: _642  and  _643
REMARK  243  A    between atoms: _653  and  _655
REMARK  244  A    between atoms: _655  and  _656
REMARK  245  A    between atoms: _655  and  _658
REMARK  246  A    between atoms: _658  and  _659
REMARK  247  A    between atoms: _664  and  _666
REMARK  248  A    between atoms: _666  and  _667
REMARK  249  A    between atoms: _666  and  _669
REMARK  250  A    between atoms: _669  and  _670
REMARK  251  A    between atoms: _673  and  _675
REMARK  252  A    between atoms: _675  and  _676
REMARK  253  A    between atoms: _675  and  _678
REMARK  254  A    between atoms: _678  and  _679
REMARK  255  A    between atoms: _679  and  _680
REMARK  256  A    between atoms: _683  and  _685
REMARK  257  A    between atoms: _685  and  _686
REMARK  258  A    between atoms: _685  and  _688
REMARK  259  A    between atoms: _688  and  _689
REMARK  260  A    between atoms: _689  and  _690
REMARK  261  A    between atoms: _690  and  _691
REMARK  262  A    between atoms: _691  and  _692
REMARK  263  A    between atoms: _696  and  _698
REMARK  264  A    between atoms: _698  and  _699
REMARK  265  A    between atoms: _698  and  _701
REMARK  266  A    between atoms: _701  and  _702
REMARK  267  A    between atoms: _707  and  _709
REMARK  268  A    between atoms: _709  and  _710
REMARK  269  A    between atoms: _709  and  _712
REMARK  270  A    between atoms: _712  and  _713
REMARK  271  A    between atoms: _713  and  _714
REMARK  272  A    between atoms: _714  and  _715
REMARK  273  A    between atoms: _724  and  _726
REMARK  274  A    between atoms: _726  and  _727
REMARK  275  A    between atoms: _726  and  _729
REMARK  276  A    between atoms: _729  and  _730
REMARK  277  A    between atoms: _733  and  _735
REMARK  278  A    between atoms: _735  and  _736
REMARK  279  A    between atoms: _735  and  _738
REMARK  280  A    between atoms: _741  and  _743
REMARK  281  A    between atoms: _743  and  _744
REMARK  282  A    between atoms: _743  and  _746
REMARK  283  A    between atoms: _746  and  _747
REMARK  284  A    between atoms: _747  and  _748
REMARK  285  A    between atoms: _754  and  _755
REMARK  286  A    between atoms: _760  and  _762
REMARK  287  A    between atoms: _762  and  _763
REMARK  288  A    between atoms: _762  and  _765
REMARK  289  A    between atoms: _765  and  _766
REMARK  290  A    between atoms: _769  and  _771
REMARK  291  A    between atoms: _771  and  _772
REMARK  292  A    between atoms: _771  and  _774
REMARK  293  A    between atoms: _774  and  _775
REMARK  294  A    between atoms: _775  and  _776
REMARK  295  A    between atoms: _776  and  _777
REMARK  296  A    between atoms: _786  and  _788
REMARK  297  A    between atoms: _788  and  _789
REMARK                            x       y       z     vdW  Elec       q    Type
REMARK                         _______ _______ _______ _____ _____    ______ ____
ROOT
ATOM      1  C   TYR A   2      22.879  21.620 -31.197  0.00  0.00    +0.241 C 
ATOM      2  O   TYR A   2      22.724  22.510 -30.366  0.00  0.00    -0.273 OA
ATOM      3  N   ARG A   3      23.242  20.386 -30.881  0.00  0.00    -0.297 N 
ATOM      4  H   ARG A   3      23.366  19.692 -31.645  0.00  0.00    +0.150 HD
ENDROOT
BRANCH   1   5
ATOM      5  CA  TYR A   2      22.672  21.882 -32.685  0.00  0.00    +0.153 C 
BRANCH   5   8
ATOM      6  C   HIS A   1      20.264  21.971 -32.857  0.00  0.00    +0.239 C 
ATOM      7  O   HIS A   1      20.173  20.771 -32.552  0.00  0.00    -0.274 OA
ATOM      8  N   TYR A   2      21.434  22.606 -32.946  0.00  0.00    -0.297 N 
ATOM      9  H   TYR A   2      21.463  23.614 -33.201  0.00  0.00    +0.150 HD
BRANCH   6  10
ATOM     10  CA  HIS A   1      19.005  22.780 -33.144  0.00  0.00    +0.151 C 
BRANCH  10  11
ATOM     11  N   HIS A   1      19.274  24.099 -33.696  0.00  0.00    -0.238 NA
ATOM     12  H   HIS A   1      19.433  24.209 -34.718  0.00  0.00    +0.142 HD
ENDBRANCH  10  11
BRANCH  10  13
ATOM     13  CB  HIS A   1      18.102  21.960 -34.085  0.00  0.00    +0.074 C 
BRANCH  13  14
ATOM     14  CG  HIS A   1      16.657  22.371 -34.079  0.00  0.00    +0.082 A 
ATOM     15  CD2 HIS A   1      15.544  21.709 -33.678  0.00  0.00    +0.115 A 
ATOM     16  NE2 HIS A   1      14.469  22.523 -33.937  0.00  0.00    -0.221 NA
ATOM     17  CE1 HIS A   1      14.905  23.649 -34.475  0.00  0.00    +0.199 A 
ATOM     18  ND1 HIS A   1      16.222  23.584 -34.570  0.00  0.00    -0.227 NA
ENDBRANCH  13  14
ENDBRANCH  10  13
ENDBRANCH   6  10
ENDBRANCH   5   8
BRANCH   5  19
ATOM     19  CB  TYR A   2      23.885  22.635 -33.223  0.00  0.00    +0.055 C 
BRANCH  19  20
ATOM     20  CG  TYR A   2      25.174  21.875 -32.985  0.00  0.00    -0.020 A 
ATOM     21  CD2 TYR A   2      25.976  22.138 -31.867  0.00  0.00    -0.001 A 
ATOM     22  CE2 TYR A   2      27.120  21.385 -31.610  0.00  0.00    +0.036 A 
ATOM     23  CZ  TYR A   2      27.470  20.359 -32.479  0.00  0.00    +0.134 A 
ATOM     24  CE1 TYR A   2      26.695  20.089 -33.587  0.00  0.00    +0.036 A 
ATOM     25  CD1 TYR A   2      25.555  20.842 -33.835  0.00  0.00    -0.001 A 
BRANCH  23  26
ATOM     26  OH  TYR A   2      28.577  19.572 -32.266  0.00  0.00    -0.506 OA
ATOM     27  HH  TYR A   2      28.651  18.904 -32.993  0.00  0.00    +0.292 HD
ENDBRANCH  23  26
ENDBRANCH  19  20
ENDBRANCH   5  19
ENDBRANCH   1   5
BRANCH   3  28
ATOM     28  CA  ARG A   3      23.475  19.962 -29.509  0.00  0.00    +0.149 C 
BRANCH  28  29
ATOM     29  C   ARG A   3      24.769  19.137 -29.501  0.00  0.00    +0.241 C 
ATOM     30  N   ALA A   4      25.819  19.668 -28.873  0.00  0.00    -0.295 N 
ATOM     31  H   ALA A   4      25.716  20.590 -28.403  0.00  0.00    +0.150 HD
ATOM     32  O   ARG A   3      24.812  18.035 -30.054  0.00  0.00    -0.273 OA
BRANCH  30  33
ATOM     33  CA  ALA A   4      27.117  18.984 -28.829  0.00  0.00    +0.176 C 
ATOM     34  CB  ALA A   4      28.091  19.764 -27.954  0.00  0.00    +0.034 C 
BRANCH  33  35
ATOM     35  C   ALA A   4      27.031  17.541 -28.354  0.00  0.00    +0.382 C 
ATOM     36  OXT ALA A   4      26.712  17.341 -27.172  0.00  0.00    -0.244 OA
ATOM     37  O   ALA A   4      27.268  16.627 -29.169  0.00  0.00    -0.244 OA
ENDBRANCH  33  35
ENDBRANCH  30  33
ENDBRANCH  28  29
BRANCH  28  38
ATOM     38  CB  ARG A   3      22.292  19.111 -29.035  0.00  0.00    +0.033 C 
BRANCH  38  39
ATOM     39  CG  ARG A   3      20.946  19.827 -29.016  0.00  0.00    +0.045 C 
BRANCH  39  40
ATOM     40  CD  ARG A   3      20.800  20.826 -27.863  0.00  0.00    +0.174 C 
BRANCH  40  41
ATOM     41  NE  ARG A   3      19.420  21.301 -27.745  0.00  0.00    -0.265 N 
ATOM     42  HE  ARG A   3      18.787  20.791 -27.096  0.00  0.00    +0.259 HD
ATOM     43  CZ  ARG A   3      18.918  22.338 -28.408  0.00  0.00    +0.342 C 
ATOM     44  NH2 ARG A   3      17.640  22.659 -28.261  0.00  0.00    -0.292 N 
ATOM     45 HH21 ARG A   3      17.033  22.100 -27.628  0.00  0.00    +0.255 HD
ATOM     46 HH22 ARG A   3      17.245  23.470 -28.779  0.00  0.00    +0.255 HD
ATOM     47  NH1 ARG A   3      19.680  23.035 -29.237  0.00  0.00    -0.292 N 
ATOM     48 HH11 ARG A   3      20.677  22.772 -29.372  0.00  0.00    +0.255 HD
ATOM     49 HH12 ARG A   3      19.281  23.845 -29.753  0.00  0.00    +0.255 HD
ENDBRANCH  40  41
ENDBRANCH  39  40
ENDBRANCH  38  39
ENDBRANCH  28  38
ENDBRANCH   3  28
TORSDOF 17
REMARK  Name = ../refined-set-2016/3o4k/3o4k_pocket.pdb
REMARK  297 active torsions:
REMARK  status: ('A' for Active; 'I' for Inactive)
REMARK    1  A    between atoms: _1  and  _3
REMARK    2  A    between atoms: _3  and  _4
REMARK    3  A    between atoms: _3  and  _6
REMARK    4  A    between atoms: _6  and  _7
REMARK    5  A    between atoms: _7  and  _8
REMARK    6  A    between atoms: _8  and  _9
REMARK    7  A    between atoms: _18  and  _20
REMARK    8  A    between atoms: _20  and  _21
REMARK    9  A    between atoms: _20  and  _23
REMARK   10  A    between atoms: _23  and  _24
REMARK   11  A    between atoms: _29  and  _30
REMARK   12  A    between atoms: _32  and  _34
REMARK   13  A    between atoms: _34  and  _35
REMARK   14  A    between atoms: _34  and  _37
REMARK   15  A    between atoms: _37  and  _38
REMARK   16  A    between atoms: _48  and  _50
REMARK   17  A    between atoms: _50  and  _51
REMARK   18  A    between atoms: _50  and  _53
REMARK   19  A    between atoms: _53  and  _54
REMARK   20  A    between atoms: _54  and  _55
REMARK   21  A    between atoms: _55  and  _56
REMARK   22  A    between atoms: _65  and  _67
REMARK   23  A    between atoms: _67  and  _68
REMARK   24  A    between atoms: _67  and  _70
REMARK   25  A    between atoms: _70  and  _71
REMARK   26  A    between atoms: _73  and  _75
REMARK   27  A    between atoms: _75  and  _76
REMARK   28  A    between atoms: _75  and  _78
REMARK   29  A    between atoms: _78  and  _79
REMARK   30  A    between atoms: _84  and  _86
REMARK   31  A    between atoms: _86  and  _87
REMARK   32  A    between atoms: _86  and  _89
REMARK   33  A    between atoms: _89  and  _90
REMARK   34  A    between atoms: _95  and  _96
REMARK   35  A    between atoms: _98  and  _100
REMARK   36  A    between atoms: _100  and  _101
REMARK   37  A    between atoms: _100  and  _103
REMARK   38  A    between atoms: _103  and  _104
REMARK   39  A    between atoms: _104  and  _105
REMARK   40  A    between atoms: _108  and  _110
REMARK   41  A    between atoms: _110  and  _111
REMARK   42  A    between atoms: _110  and  _113
REMARK   43  A    between atoms: _116  and  _118
REMARK   44  A    between atoms: _118  and  _119
REMARK   45  A    between atoms: _118  and  _121
REMARK   46  A    between atoms: _121  and  _122
REMARK   47  A    between atoms: _122  and  _123
REMARK   48  A    between atoms: _123  and  _124
REMARK   49  A    between atoms: _124  and  _125
REMARK   50  A    between atoms: _129  and  _131
REMARK   51  A    between atoms: _131  and  _132
REMARK   52  A    between atoms: _131  and  _134
REMARK   53  A    between atoms: _134  and  _135
REMARK   54  A    between atoms: _140  and  _142
REMARK   55  A    between atoms: _142  and  _143
REMARK   56  A    between atoms: _142  and  _145
REMARK   57  A    between atoms: _145  and  _146
REMARK   58  A    between atoms: _151  and  _152
REMARK   59  A    between atoms: _154  and  _156
REMARK   60  A    between atoms: _156  and  _157
REMARK   61  A    between atoms: _156  and  _159
REMARK   62  A    between atoms: _159  and  _160
REMARK   63  A    between atoms: _160  and  _161
REMARK   64  A    between atoms: _161  and  _162
REMARK   65  A    between atoms: _171  and  _173
REMARK   66  A    between atoms: _173  and  _174
REMARK   67  A    between atoms: _178  and  _180
REMARK   68  A    between atoms: _180  and  _181
REMARK   69  A    between atoms: _180  and  _183
REMARK   70  A    between atoms: _183  and  _184
REMARK   71  A    between atoms: _186  and  _188
REMARK   72  A    between atoms: _188  and  _189
REMARK   73  A    between atoms: _188  and  _191
REMARK   74  A    between atoms: _191  and  _192
REMARK   75  A    between atoms: _192  and  _193
REMARK   76  A    between atoms: _196  and  _198
REMARK   77  A    between atoms: _198  and  _199
REMARK   78  A    between atoms: _198  and  _201
REMARK   79  A    between atoms: _201  and  _202
REMARK   80  A    between atoms: _202  and  _352
REMARK   81  A    between atoms: _203  and  _205
REMARK   82  A    between atoms: _205  and  _206
REMARK   83  A    between atoms: _205  and  _208
REMARK   84  A    between atoms: _208  and  _209
REMARK   85  A    between atoms: _209  and  _210
REMARK   86  A    between atoms: _210  and  _211
REMARK   87  A    between atoms: _220  and  _222
REMARK   88  A    between atoms: _222  and  _223
REMARK   89  A    between atoms: _222  and  _225
REMARK   90  A    between atoms: _225  and  _226
REMARK   91  A    between atoms: _226  and  _227
REMARK   92  A    between atoms: _230  and  _232
REMARK   93  A    between atoms: _232  and  _233
REMARK   94  A    between atoms: _232  and  _235
REMARK   95  A    between atoms: _235  and  _236
REMARK   96  A    between atoms: _236  and  _237
REMARK   97  A    between atoms: _237  and  _238
REMARK   98  A    between atoms: _247  and  _249
REMARK   99  A    between atoms: _249  and  _250
REMARK  100  A    between atoms: _249  and  _252
REMARK  101  A    between atoms: _252  and  _253
REMARK  102  A    between atoms: _255  and  _257
REMARK  103  A    between atoms: _257  and  _258
REMARK  104  A    between atoms: _257  and  _260
REMARK  105  A    between atoms: _260  and  _261
REMARK  106  A    between atoms: _266  and  _267
REMARK  107  A    between atoms: _269  and  _271
REMARK  108  A    between atoms: _271  and  _272
REMARK  109  A    between atoms: _271  and  _274
REMARK  110  A    between atoms: _274  and  _275
REMARK  111  A    between atoms: _280  and  _282
REMARK  112  A    between atoms: _282  and  _283
REMARK  113  A    between atoms: _282  and  _285
REMARK  114  A    between atoms: _288  and  _290
REMARK  115  A    between atoms: _290  and  _291
REMARK  116  A    between atoms: _290  and  _293
REMARK  117  A    between atoms: _293  and  _294
REMARK  118  A    between atoms: _294  and  _295
REMARK  119  A    between atoms: _295  and  _296
REMARK  120  A    between atoms: _305  and  _307
REMARK  121  A    between atoms: _307  and  _308
REMARK  122  A    between atoms: _307  and  _310
REMARK  123  A    between atoms: _310  and  _311
REMARK  124  A    between atoms: _316  and  _318
REMARK  125  A    between atoms: _318  and  _319
REMARK  126  A    between atoms: _318  and  _321
REMARK  127  A    between atoms: _321  and  _322
REMARK  128  A    between atoms: _325  and  _327
REMARK  129  A    between atoms: _327  and  _328
REMARK  130  A    between atoms: _330  and  _332
REMARK  131  A    between atoms: _332  and  _333
REMARK  132  A    between atoms: _332  and  _335
REMARK  133  A    between atoms: _335  and  _336
REMARK  134  A    between atoms: _346  and  _348
REMARK  135  A    between atoms: _348  and  _349
REMARK  136  A    between atoms: _348  and  _351
REMARK  137  A    between atoms: _351  and  _352
REMARK  138  A    between atoms: _353  and  _355
REMARK  139  A    between atoms: _355  and  _356
REMARK  140  A    between atoms: _355  and  _358
REMARK  141  A    between atoms: _358  and  _359
REMARK  142  A    between atoms: _362  and  _364
REMARK  143  A    between atoms: _364  and  _365
REMARK  144  A    between atoms: _367  and  _369
REMARK  145  A    between atoms: _369  and  _370
REMARK  146  A    between atoms: _369  and  _372
REMARK  147  A    between atoms: _372  and  _373
REMARK  148  A    between atoms: _378  and  _379
REMARK  149  A    between atoms: _381  and  _383
REMARK  150  A    between atoms: _383  and  _384
REMARK  151  A    between atoms: _383  and  _386
REMARK  152  A    between atoms: _386  and  _387
REMARK  153  A    between atoms: _387  and  _388
REMARK  154  A    between atoms: _388  and  _389
REMARK  155  A    between atoms: _398  and  _400
REMARK  156  A    between atoms: _400  and  _401
REMARK  157  A    between atoms: _400  and  _403
REMARK  158  A    between atoms: _403  and  _404
REMARK  159  A    between atoms: _407  and  _409
REMARK  160  A    between atoms: _409  and  _410
REMARK  161  A    between atoms: _409  and  _412
REMARK  162  A    between atoms: _412  and  _413
REMARK  163  A    between atoms: _413  and  _414
REMARK  164  A    between atoms: _414  and  _415
REMARK  165  A    between atoms: _415  and  _416
REMARK  166  A    between atoms: _420  and  _422
REMARK  167  A    between atoms: _422  and  _423
REMARK  168  A    between atoms: _425  and  _427
REMARK  169  A    between atoms: _427  and  _428
REMARK  170  A    between atoms: _431  and  _433
REMARK  171  A    between atoms: _433  and  _434
REMARK  172  A    between atoms: _433  and  _436
REMARK  173  A    between atoms: _436  and  _437
REMARK  174  A    between atoms: _442  and  _444
REMARK  175  A    between atoms: _444  and  _445
REMARK  176  A    between atoms: _448  and  _450
REMARK  177  A    between atoms: _450  and  _451
REMARK  178  A    between atoms: _454  and  _455
REMARK  179  A    between atoms: _460  and  _462
REMARK  180  A    between atoms: _462  and  _463
REMARK  181  A    between atoms: _462  and  _465
REMARK  182  A    between atoms: _465  and  _466
REMARK  183  A    between atoms: _469  and  _471
REMARK  184  A    between atoms: _471  and  _472
REMARK  185  A    between atoms: _471  and  _474
REMARK  186  A    between atoms: _474  and  _475
REMARK  187  A    between atoms: _485  and  _487
REMARK  188  A    between atoms: _487  and  _488
REMARK  189  A    between atoms: _487  and  _490
REMARK  190  A    between atoms: _490  and  _491
REMARK  191  A    between atoms: _497  and  _498
REMARK  192  A    between atoms: _503  and  _505
REMARK  193  A    between atoms: _505  and  _506
REMARK  194  A    between atoms: _505  and  _508
REMARK  195  A    between atoms: _508  and  _509
REMARK  196  A    between atoms: _514  and  _516
REMARK  197  A    between atoms: _516  and  _517
REMARK  198  A    between atoms: _516  and  _519
REMARK  199  A    between atoms: _522  and  _524
REMARK  200  A    between atoms: _524  and  _525
REMARK  201  A    between atoms: _524  and  _527
REMARK  202  A    between atoms: _527  and  _528
REMARK  203  A    between atoms: _528  and  _529
REMARK  204  A    between atoms: _535  and  _536
REMARK  205  A    between atoms: _541  and  _543
REMARK  206  A    between atoms: _543  and  _544
REMARK  207  A    between atoms: _543  and  _546
REMARK  208  A    between atoms: _546  and  _547
REMARK  209  A    between atoms: _550  and  _552
REMARK  210  A    between atoms: _552  and  _553
REMARK  211  A    between atoms: _552  and  _555
REMARK  212  A    between atoms: _555  and  _556
REMARK  213  A    between atoms: _558  and  _560
REMARK  214  A    between atoms: _560  and  _561
REMARK  215  A    between atoms: _560  and  _563
REMARK  216  A    between atoms: _563  and  _564
REMARK  217  A    between atoms: _569  and  _570
REMARK  218  A    between atoms: _572  and  _574
REMARK  219  A    between atoms: _574  and  _575
REMARK  220  A    between atoms: _574  and  _577
REMARK  221  A    between atoms: _577  and  _578
REMARK  222  A    between atoms: _588  and  _590
REMARK  223  A    between atoms: _590  and  _591
REMARK  224  A    between atoms: _593  and  _595
REMARK  225  A    between atoms: _595  and  _596
REMARK  226  A    between atoms: _599  and  _601
REMARK  227  A    between atoms: _601  and  _602
REMARK  228  A    between atoms: _601  and  _604
REMARK  229  A    between atoms: _604  and  _605
REMARK  230  A    between atoms: _610  and  _612
REMARK  231  A    between atoms: _612  and  _613
REMARK  232  A    between atoms: _616  and  _618
REMARK  233  A    between atoms: _618  and  _619
REMARK  234  A    between atoms: _622  and  _623
REMARK  235  A    between atoms: _628  and  _630
REMARK  236  A    between atoms: _630  and  _631
REMARK  237  A    between atoms: _630  and  _633
REMARK  238  A    between atoms: _633  and  _634
REMARK  239  A    between atoms: _637  and  _639
REMARK  240  A    between atoms: _639  and  _640
REMARK  241  A    between atoms: _639  and  _642
REMARK  242  A    between atoms: _642  and  _643
REMARK  243  A    between atoms: _653  and  _655
REMARK  244  A    between atoms: _655  and  _656
REMARK  245  A    between atoms: _655  and  _658
REMARK  246  A    between atoms: _658  and  _659
REMARK  247  A    between atoms: _664  and  _666
REMARK  248  A    between atoms: _666  and  _667
REMARK  249  A    between atoms: _666  and  _669
REMARK  250  A    between atoms: _669  and  _670
REMARK  251  A    between atoms: _673  and  _675
REMARK  252  A    between atoms: _675  and  _676
REMARK  253  A    between atoms: _675  and  _678
REMARK  254  A    between atoms: _678  and  _679
REMARK  255  A    between atoms: _679  and  _680
REMARK  256  A    between atoms: _683  and  _685
REMARK  257  A    between atoms: _685  and  _686
REMARK  258  A    between atoms: _685  and  _688
REMARK  259  A    between atoms: _688  and  _689
REMARK  260  A    between atoms: _689  and  _690
REMARK  261  A    between atoms: _690  and  _691
REMARK  262  A    between atoms: _691  and  _692
REMARK  263  A    between atoms: _696  and  _698
REMARK  264  A    between atoms: _698  and  _699
REMARK  265  A    between atoms: _698  and  _701
REMARK  266  A    between atoms: _701  and  _702
REMARK  267  A    between atoms: _707  and  _709
REMARK  268  A    between atoms: _709  and  _710
REMARK  269  A    between atoms: _709  and  _712
REMARK  270  A    between atoms: _712  and  _713
REMARK  271  A    between atoms: _713  and  _714
REMARK  272  A    between atoms: _714  and  _715
REMARK  273  A    between atoms: _724  and  _726
REMARK  274  A    between atoms: _726  and  _727
REMARK  275  A    between atoms: _726  and  _729
REMARK  276  A    between atoms: _729  and  _730
REMARK  277  A    between atoms: _733  and  _735
REMARK  278  A    between atoms: _735  and  _736
REMARK  279  A    between atoms: _735  and  _738
REMARK  280  A    between atoms: _741  and  _743
REMARK  281  A    between atoms: _743  and  _744
REMARK  282  A    between atoms: _743  and  _746
REMARK  283  A    between atoms: _746  and  _747
REMARK  284  A    between atoms: _747  and  _748
REMARK  285  A    between atoms: _754  and  _755
REMARK  286  A    between atoms: _760  and  _762
REMARK  287  A    between atoms: _762  and  _763
REMARK  288  A    between atoms: _762  and  _765
REMARK  289  A    between atoms: _765  and  _766
REMARK  290  A    between atoms: _769  and  _771
REMARK  291  A    between atoms: _771  and  _772
REMARK  292  A    between atoms: _771  and  _774
REMARK  293  A    between atoms: _774  and  _775
REMARK  294  A    between atoms: _775  and  _776
REMARK  295  A    between atoms: _776  and  _777
REMARK  296  A    between atoms: _786  and  _788
REMARK  297  A    between atoms: _788  and  _789
REMARK                            x       y       z     vdW  Elec       q    Type
REMARK                         _______ _______ _______ _____ _____    ______ ____
ROOT
ATOM      1  CA  TRP A   8      12.124  14.720 -24.068  0.00  0.00    +0.153 C 
ENDROOT
BRANCH   1   2
ATOM      2  N   TRP A   8      10.752  15.112 -24.398  0.00  0.00    -0.297 N 
ATOM      3  H   TRP A   8      10.046  15.156 -23.636  0.00  0.00    +0.150 HD
ATOM      4  C   GLY A   7      10.376  15.414 -25.639  0.00  0.00    +0.243 C 
ATOM      5  O   GLY A   7      11.145  15.378 -26.593  0.00  0.00    -0.273 OA
BRANCH   4   6
ATOM      6  CA  GLY A   7       8.923  15.798 -25.859  0.00  0.00    +0.176 C 
BRANCH   6   7
ATOM      7  N   GLY A   7       8.222  16.373 -24.726  0.00  0.00    -0.295 N 
ATOM      8  C   ARG A   6       8.584  17.555 -24.234  0.00  0.00    +0.241 C 
ATOM      9  O   ARG A   6       9.520  18.209 -24.688  0.00  0.00    -0.273 OA
ATOM     10  H   GLY A   7       7.429  15.856 -24.295  0.00  0.00    +0.150 HD
BRANCH   8  11
ATOM     11  CA  ARG A   6       7.786  18.085 -23.052  0.00  0.00    +0.149 C 
BRANCH  11  12
ATOM     12  N   ARG A   6       6.617  17.266 -22.764  0.00  0.00    -0.297 N 
ATOM     13  H   ARG A   6       6.705  16.492 -22.075  0.00  0.00    +0.150 HD
ATOM     14  C   GLU A   5       5.441  17.471 -23.349  0.00  0.00    +0.241 C 
ATOM     15  O   GLU A   5       5.247  18.352 -24.194  0.00  0.00    -0.273 OA
BRANCH  14  16
ATOM     16  CA  GLU A   5       4.316  16.538 -22.925  0.00  0.00    +0.158 C 
BRANCH  16  17
ATOM     17  N   GLU A   5       4.700  15.125 -22.911  0.00  0.00    -0.297 N 
ATOM     18  H   GLU A   5       5.016  14.672 -22.030  0.00  0.00    +0.150 HD
ATOM     19  C   ARG A   4       4.638  14.432 -24.043  0.00  0.00    +0.241 C 
ATOM     20  O   ARG A   4       4.293  14.946 -25.104  0.00  0.00    -0.273 OA
BRANCH  19  21
ATOM     21  CA  ARG A   4       5.015  12.960 -24.014  0.00  0.00    +0.149 C 
BRANCH  21  22
ATOM     22  N   ARG A   4       6.163  12.645 -23.177  0.00  0.00    -0.297 N 
ATOM     23  H   ARG A   4       6.010  12.300 -22.208  0.00  0.00    +0.150 HD
ATOM     24  C   VAL A   3       7.403  12.791 -23.629  0.00  0.00    +0.241 C 
ATOM     25  O   VAL A   3       7.665  13.205 -24.753  0.00  0.00    -0.273 OA
BRANCH  24  26
ATOM     26  CA  VAL A   3       8.519  12.416 -22.681  0.00  0.00    +0.149 C 
BRANCH  26  27
ATOM     27  N   VAL A   3       8.380  12.985 -21.346  0.00  0.00    -0.297 N 
ATOM     28  H   VAL A   3       7.917  12.428 -20.599  0.00  0.00    +0.150 HD
ATOM     29  C   HIS A   2       8.833  14.200 -21.066  0.00  0.00    +0.241 C 
ATOM     30  O   HIS A   2       9.350  14.936 -21.910  0.00  0.00    -0.273 OA
BRANCH  29  31
ATOM     31  CA  HIS A   2       8.691  14.666 -19.624  0.00  0.00    +0.155 C 
BRANCH  31  32
ATOM     32  N   HIS A   2       7.451  14.278 -18.955  0.00  0.00    -0.297 N 
ATOM     33  H   HIS A   2       7.498  13.598 -18.170  0.00  0.00    +0.150 HD
ATOM     34  C   TYR A   1       6.266  14.761 -19.311  0.00  0.00    +0.239 C 
ATOM     35  O   TYR A   1       6.111  15.524 -20.266  0.00  0.00    -0.274 OA
BRANCH  34  36
ATOM     36  CA  TYR A   1       5.076  14.271 -18.495  0.00  0.00    +0.149 C 
BRANCH  36  37
ATOM     37  N   TYR A   1       5.152  12.823 -18.381  0.00  0.00    -0.238 NA
ATOM     38  H   TYR A   1       5.280  12.383 -17.448  0.00  0.00    +0.142 HD
ENDBRANCH  36  37
BRANCH  36  39
ATOM     39  CB  TYR A   1       5.054  14.907 -17.092  0.00  0.00    +0.053 C 
BRANCH  39  40
ATOM     40  CG  TYR A   1       5.231  16.417 -17.036  0.00  0.00    -0.020 A 
ATOM     41  CD2 TYR A   1       5.953  17.002 -15.994  0.00  0.00    -0.001 A 
ATOM     42  CE2 TYR A   1       6.070  18.386 -15.879  0.00  0.00    +0.036 A 
ATOM     43  CZ  TYR A   1       5.457  19.208 -16.818  0.00  0.00    +0.134 A 
ATOM     44  CE1 TYR A   1       4.738  18.659 -17.870  0.00  0.00    +0.036 A 
ATOM     45  CD1 TYR A   1       4.626  17.264 -17.977  0.00  0.00    -0.001 A 
BRANCH  43  46
ATOM     46  OH  TYR A   1       5.535  20.577 -16.687  0.00  0.00    -0.506 OA
ATOM     47  HH  TYR A   1       5.048  21.007 -17.434  0.00  0.00    +0.292 HD
ENDBRANCH  43  46
ENDBRANCH  39  40
ENDBRANCH  36  39
ENDBRANCH  34  36
ENDBRANCH  31  32
BRANCH  31  48
ATOM     48  CB  HIS A   2       9.895  14.146 -18.837  0.00  0.00    +0.076 C 
BRANCH  48  49
ATOM     49  CG  HIS A   2      10.047  14.761 -17.481  0.00  0.00    +0.082 A 
ATOM     50  CD2 HIS A   2       9.175  15.440 -16.699  0.00  0.00    +0.115 A 
ATOM     51  NE2 HIS A   2       9.836  15.761 -15.538  0.00  0.00    -0.221 NA
ATOM     52  CE1 HIS A   2      11.070  15.297 -15.606  0.00  0.00    +0.199 A 
ATOM     53  ND1 HIS A   2      11.223  14.692 -16.769  0.00  0.00    -0.227 NA
ENDBRANCH  48  49
ENDBRANCH  31  48
ENDBRANCH  29  31
ENDBRANCH  26  27
BRANCH  26  54
ATOM     54  CB  VAL A   3       8.622  10.863 -22.612  0.00  0.00    +0.027 C 
ATOM     55  CG2 VAL A   3       9.878  10.464 -21.838  0.00  0.00    +0.002 C 
ATOM     56  CG1 VAL A   3       8.638  10.262 -24.017  0.00  0.00    +0.002 C 
ENDBRANCH  26  54
ENDBRANCH  24  26
ENDBRANCH  21  22
BRANCH  21  57
ATOM     57  CB  ARG A   4       3.791  12.132 -23.594  0.00  0.00    +0.033 C 
BRANCH  57  58
ATOM     58  CG  ARG A   4       3.981  10.635 -23.786  0.00  0.00    +0.045 C 
BRANCH  58  59
ATOM     59  CD  ARG A   4       2.672   9.882 -23.660  0.00  0.00    +0.174 C 
BRANCH  59  60
ATOM     60  NE  ARG A   4       2.824   8.463 -23.978  0.00  0.00    -0.265 N 
ATOM     61  CZ  ARG A   4       3.070   7.514 -23.081  0.00  0.00    +0.342 C 
ATOM     62  NH2 ARG A   4       3.193   7.826 -21.798  0.00  0.00    -0.292 N 
ATOM     63 HH21 ARG A   4       3.386   7.081 -21.098  0.00  0.00    +0.255 HD
ATOM     64 HH22 ARG A   4       3.097   8.815 -21.492  0.00  0.00    +0.255 HD
ATOM     65  NH1 ARG A   4       3.180   6.249 -23.464  0.00  0.00    -0.292 N 
ATOM     66 HH11 ARG A   4       3.373   5.508 -22.761  0.00  0.00    +0.255 HD
ATOM     67 HH12 ARG A   4       3.074   5.998 -24.468  0.00  0.00    +0.255 HD
ATOM     68  HE  ARG A   4       2.733   8.177 -24.974  0.00  0.00    +0.259 HD
ENDBRANCH  59  60
ENDBRANCH  58  59
ENDBRANCH  57  58
ENDBRANCH  21  57
ENDBRANCH  19  21
ENDBRANCH  16  17
BRANCH  16  69
ATOM     69  CB  GLU A   5       3.779  16.963 -21.560  0.00  0.00    +0.114 C 
BRANCH  69  70
ATOM     70  CG  GLU A   5       2.581  16.145 -21.129  0.00  0.00    +0.222 C 
ATOM     71  ND2 GLU A   5       2.581  15.705 -19.879  0.00  0.00    -0.329 N 
ATOM     72 HD21 GLU A   5       3.383  15.919 -19.252  0.00  0.00    +0.145 HD
ATOM     73 HD22 GLU A   5       1.779  15.145 -19.525  0.00  0.00    +0.145 HD
ATOM     74  OD1 GLU A   5       1.661  15.921 -21.911  0.00  0.00    -0.275 OA
ENDBRANCH  69  70
ENDBRANCH  16  69
ENDBRANCH  14  16
ENDBRANCH  11  12
BRANCH  11  75
ATOM     75  CB  ARG A   6       8.683  18.163 -21.814  0.00  0.00    +0.029 C 
BRANCH  75  76
ATOM     76  CG  ARG A   6       8.003  18.668 -20.536  0.00  0.00    +0.002 C 
ATOM     77  CD2 ARG A   6       8.972  18.626 -19.368  0.00  0.00    +0.000 C 
ATOM     78  CD1 ARG A   6       7.508  20.085 -20.752  0.00  0.00    +0.000 C 
ENDBRANCH  75  76
ENDBRANCH  11  75
ENDBRANCH   8  11
ENDBRANCH   6   7
ENDBRANCH   4   6
ENDBRANCH   1   2
BRANCH   1  80
ATOM     79  N   CYS A   9      13.744  12.931 -24.425  0.00  0.00    -0.296 N 
ATOM     80  C   TRP A   8      12.446  13.243 -24.318  0.00  0.00    +0.241 C 
ATOM     81  O   TRP A   8      11.545  12.417 -24.382  0.00  0.00    -0.273 OA
ATOM     82  H   CYS A   9      14.439  13.699 -24.334  0.00  0.00    +0.150 HD
BRANCH  79  83
ATOM     83  CA  CYS A   9      14.249  11.567 -24.663  0.00  0.00    +0.160 C 
BRANCH  83  84
ATOM     84  C   CYS A   9      13.945  10.630 -23.510  0.00  0.00    +0.242 C 
ATOM     85  N   ASP A  10      13.900  11.185 -22.305  0.00  0.00    -0.298 N 
ATOM     86  H   ASP A  10      14.088  12.203 -22.203  0.00  0.00    +0.150 HD
ATOM     87  O   CYS A   9      13.780   9.427 -23.702  0.00  0.00    -0.273 OA
BRANCH  85  88
ATOM     88  CA  ASP A  10      13.592  10.393 -21.126  0.00  0.00    +0.148 C 
BRANCH  88  89
ATOM     89  C   ASP A  10      13.240  11.307 -19.963  0.00  0.00    +0.227 C 
ATOM     90  O   ASP A  10      13.248  12.543 -20.089  0.00  0.00    -0.286 OA
ENDBRANCH  88  89
BRANCH  88  91
ATOM     91  CB  ASP A  10      14.788   9.519 -20.760  0.00  0.00    +0.142 C 
BRANCH  91  92
ATOM     92  CG  ASP A  10      14.460   8.482 -19.711  0.00  0.00    +0.367 C 
ATOM     93  OD2 ASP A  10      15.387   8.049 -19.006  0.00  0.00    -0.246 OA
ATOM     94  OD1 ASP A  10      13.284   8.069 -19.606  0.00  0.00    -0.246 OA
ENDBRANCH  91  92
ENDBRANCH  88  91
ENDBRANCH  85  88
ENDBRANCH  83  84
BRANCH  83  95
ATOM     95  CB  CYS A   9      15.769  11.557 -24.914  0.00  0.00    +0.098 C 
BRANCH  95  96
ATOM     96  SG  CYS A   9      16.859  12.314 -23.663  0.00  0.00    -0.080 S 
BRANCH  96  97
ATOM     97  SG  VAL A   3      17.418  10.802 -22.412  0.00  0.00    -0.080 S 
BRANCH  97  98
ATOM     98  CB  VAL A   3      18.965  10.135 -23.094  0.00  0.00    +0.098 C 
BRANCH  98  99
ATOM     99  CA  VAL A   3      18.962   9.792 -24.590  0.00  0.00    +0.160 C 
BRANCH  99 100
ATOM    100  C   VAL A   3      20.254   9.066 -24.904  0.00  0.00    +0.242 C 
ATOM    101  O   VAL A   3      20.345   7.845 -24.741  0.00  0.00    -0.273 OA
ATOM    102  N   ARG A   4      21.257   9.818 -25.335  0.00  0.00    -0.297 N 
ATOM    103  H   ARG A   4      21.126  10.845 -25.429  0.00  0.00    +0.150 HD
BRANCH 102 104
ATOM    104  CA  ARG A   4      22.530   9.226 -25.676  0.00  0.00    +0.149 C 
BRANCH 104 105
ATOM    105  C   ARG A   4      23.721   9.972 -25.090  0.00  0.00    +0.241 C 
ATOM    106  N   GLU A   5      23.540  11.205 -24.648  0.00  0.00    -0.297 N 
ATOM    107  H   GLU A   5      22.605  11.659 -24.692  0.00  0.00    +0.150 HD
ATOM    108  O   ARG A   4      24.811   9.424 -25.018  0.00  0.00    -0.273 OA
BRANCH 106 109
ATOM    109  CA  GLU A   5      24.691  11.908 -24.098  0.00  0.00    +0.149 C 
BRANCH 109 110
ATOM    110  C   GLU A   5      25.148  11.369 -22.750  0.00  0.00    +0.241 C 
ATOM    111  O   GLU A   5      24.331  11.163 -21.850  0.00  0.00    -0.273 OA
ATOM    112  N   ARG A   6      26.459  11.201 -22.601  0.00  0.00    -0.298 N 
ATOM    113  H   ARG A   6      27.092  11.465 -23.383  0.00  0.00    +0.150 HD
BRANCH 112 114
ATOM    114  CA  ARG A   6      27.036  10.661 -21.381  0.00  0.00    +0.137 C 
BRANCH 114 115
ATOM    115  C   ARG A   6      27.630  11.670 -20.413  0.00  0.00    +0.227 C 
ATOM    116  O   ARG A   6      27.989  12.785 -20.781  0.00  0.00    -0.286 OA
ENDBRANCH 114 115
BRANCH 114 117
ATOM    117  CB  ARG A   6      28.111   9.631 -21.725  0.00  0.00    +0.031 C 
BRANCH 117 118
ATOM    118  CG  ARG A   6      27.611   8.433 -22.513  0.00  0.00    +0.045 C 
BRANCH 118 119
ATOM    119  CD  ARG A   6      28.751   7.488 -22.816  0.00  0.00    +0.174 C 
BRANCH 119 120
ATOM    120  NE  ARG A   6      29.292   6.859 -21.615  0.00  0.00    -0.265 N 
ATOM    121  CZ  ARG A   6      28.709   5.851 -20.975  0.00  0.00    +0.342 C 
ATOM    122  NH2 ARG A   6      29.287   5.315 -19.906  0.00  0.00    -0.292 N 
ATOM    123 HH21 ARG A   6      28.828   4.526 -19.407  0.00  0.00    +0.255 HD
ATOM    124 HH22 ARG A   6      30.198   5.684 -19.568  0.00  0.00    +0.255 HD
ATOM    125  NH1 ARG A   6      27.559   5.360 -21.421  0.00  0.00    -0.292 N 
ATOM    126 HH11 ARG A   6      27.102   4.571 -20.921  0.00  0.00    +0.255 HD
ATOM    127 HH12 ARG A   6      27.115   5.764 -22.270  0.00  0.00    +0.255 HD
ATOM    128  HE  ARG A   6      30.190   7.223 -21.237  0.00  0.00    +0.259 HD
ENDBRANCH 119 120
ENDBRANCH 118 119
ENDBRANCH 117 118
ENDBRANCH 114 117
ENDBRANCH 112 114
ENDBRANCH 109 110
BRANCH 109 129
ATOM    129  CB  GLU A   5      24.390  13.378 -23.950  0.00  0.00    +0.041 C 
BRANCH 129 130
ATOM    130  CG  GLU A   5      25.618  14.193 -23.787  0.00  0.00    +0.116 C 
BRANCH 130 131
ATOM    131  CD  GLU A   5      25.527  15.393 -24.656  0.00  0.00    +0.365 C 
ATOM    132  OE2 GLU A   5      26.250  16.381 -24.424  0.00  0.00    -0.246 OA
ATOM    133  OE1 GLU A   5      24.710  15.330 -25.594  0.00  0.00    -0.246 OA
ENDBRANCH 130 131
ENDBRANCH 129 130
ENDBRANCH 109 129
ENDBRANCH 106 109
ENDBRANCH 104 105
BRANCH 104 134
ATOM    134  CB  ARG A   4      22.662   9.132 -27.202  0.00  0.00    +0.033 C 
BRANCH 134 135
ATOM    135  CG  ARG A   4      21.644   8.205 -27.861  0.00  0.00    +0.045 C 
BRANCH 135 136
ATOM    136  CD  ARG A   4      21.973   6.738 -27.627  0.00  0.00    +0.174 C 
BRANCH 136 137
ATOM    137  NE  ARG A   4      21.020   5.860 -28.303  0.00  0.00    -0.265 N 
ATOM    138  CZ  ARG A   4      19.843   5.499 -27.799  0.00  0.00    +0.342 C 
ATOM    139  NH2 ARG A   4      19.463   5.931 -26.601  0.00  0.00    -0.292 N 
ATOM    140 HH21 ARG A   4      20.087   6.555 -26.051  0.00  0.00    +0.255 HD
ATOM    141 HH22 ARG A   4      18.541   5.645 -26.213  0.00  0.00    +0.255 HD
ATOM    142  NH1 ARG A   4      19.033   4.718 -28.498  0.00  0.00    -0.292 N 
ATOM    143 HH11 ARG A   4      18.113   4.436 -28.103  0.00  0.00    +0.255 HD
ATOM    144 HH12 ARG A   4      19.317   4.386 -29.442  0.00  0.00    +0.255 HD
ATOM    145  HE  ARG A   4      21.279   5.493 -29.241  0.00  0.00    +0.259 HD
ENDBRANCH 136 137
ENDBRANCH 135 136
ENDBRANCH 134 135
ENDBRANCH 104 134
ENDBRANCH 102 104
ENDBRANCH  99 100
BRANCH  99 147
ATOM    146  C   HIS A   2      17.409   8.856 -26.229  0.00  0.00    +0.241 C 
ATOM    147  N   VAL A   3      17.819   8.952 -24.961  0.00  0.00    -0.296 N 
ATOM    148  H   VAL A   3      17.317   8.420 -24.222  0.00  0.00    +0.150 HD
ATOM    149  O   HIS A   2      17.951   9.456 -27.156  0.00  0.00    -0.273 OA
BRANCH 146 150
ATOM    150  CA  HIS A   2      16.208   7.952 -26.498  0.00  0.00    +0.149 C 
BRANCH 150 152
ATOM    151  C   TYR A   1      15.706   6.313 -24.780  0.00  0.00    +0.241 C 
ATOM    152  N   HIS A   2      15.594   7.550 -25.244  0.00  0.00    -0.297 N 
ATOM    153  H   HIS A   2      15.053   8.250 -24.697  0.00  0.00    +0.150 HD
ATOM    154  O   TYR A   1      16.337   5.426 -25.357  0.00  0.00    -0.274 OA
BRANCH 151 155
ATOM    155  CA  TYR A   1      15.033   6.059 -23.447  0.00  0.00    +0.174 C 
BRANCH 155 156
ATOM    156  N   TYR A   1      14.331   4.786 -23.367  0.00  0.00    -0.236 NA
ATOM    157  H   TYR A   1      14.836   3.961 -22.986  0.00  0.00    +0.142 HD
ENDBRANCH 155 156
BRANCH 155 158
ATOM    158  CB  TYR A   1      16.114   6.179 -22.372  0.00  0.00    +0.163 C 
BRANCH 158 159
ATOM    159  O   TYR A   1      16.908   7.333 -22.623  0.00  0.00    -0.380 OA
ATOM    160  H   TYR A   1      17.607   7.409 -21.926  0.00  0.00    +0.211 HD
ENDBRANCH 158 159
ENDBRANCH 155 158
ENDBRANCH 151 155
ENDBRANCH 150 152
BRANCH 150 161
ATOM    161  CB  HIS A   2      15.189   8.683 -27.380  0.00  0.00    +0.041 C 
BRANCH 161 162
ATOM    162  CG  HIS A   2      14.087   7.794 -27.955  0.00  0.00    +0.116 C 
BRANCH 162 163
ATOM    163  CD  HIS A   2      13.117   8.559 -28.854  0.00  0.00    +0.365 C 
ATOM    164  OE2 HIS A   2      11.921   8.193 -28.890  0.00  0.00    -0.246 OA
ATOM    165  OE1 HIS A   2      13.549   9.519 -29.532  0.00  0.00    -0.246 OA
ENDBRANCH 162 163
ENDBRANCH 161 162
ENDBRANCH 150 161
ENDBRANCH 146 150
ENDBRANCH  99 147
ENDBRANCH  98  99
ENDBRANCH  97  98
ENDBRANCH  96  97
ENDBRANCH  95  96
ENDBRANCH  83  95
ENDBRANCH  79  83
ENDBRANCH   1  80
BRANCH   1 166
ATOM    166  CB  TRP A   8      12.438  15.012 -22.605  0.00  0.00    +0.057 C 
BRANCH 166 167
ATOM    167  CG  TRP A   8      12.344  16.428 -22.228  0.00  0.00    -0.002 A 
ATOM    168  CD2 TRP A   8      12.575  16.969 -20.930  0.00  0.00    +0.013 A 
ATOM    169  CE3 TRP A   8      12.926  16.410 -19.698  0.00  0.00    +0.001 A 
ATOM    170  CZ3 TRP A   8      13.068  17.243 -18.611  0.00  0.00    +0.000 A 
ATOM    171  CH2 TRP A   8      12.867  18.626 -18.730  0.00  0.00    +0.001 A 
ATOM    172  CZ2 TRP A   8      12.524  19.206 -19.920  0.00  0.00    +0.017 A 
ATOM    173  CE2 TRP A   8      12.380  18.361 -21.018  0.00  0.00    +0.056 A 
ATOM    174  NE1 TRP A   8      12.046  18.644 -22.316  0.00  0.00    -0.352 N 
ATOM    175  HE1 TRP A   8      11.840  19.590 -22.695  0.00  0.00    +0.166 HD
ATOM    176  CD1 TRP A   8      12.027  17.477 -23.034  0.00  0.00    +0.068 A 
ENDBRANCH 166 167
ENDBRANCH   1 166
TORSDOF 71
REMARK  Name = ../refined-set-2016/3o4k/3o4k_pocket.pdb
REMARK  297 active torsions:
REMARK  status: ('A' for Active; 'I' for Inactive)
REMARK    1  A    between atoms: _1  and  _3
REMARK    2  A    between atoms: _3  and  _4
REMARK    3  A    between atoms: _3  and  _6
REMARK    4  A    between atoms: _6  and  _7
REMARK    5  A    between atoms: _7  and  _8
REMARK    6  A    between atoms: _8  and  _9
REMARK    7  A    between atoms: _18  and  _20
REMARK    8  A    between atoms: _20  and  _21
REMARK    9  A    between atoms: _20  and  _23
REMARK   10  A    between atoms: _23  and  _24
REMARK   11  A    between atoms: _29  and  _30
REMARK   12  A    between atoms: _32  and  _34
REMARK   13  A    between atoms: _34  and  _35
REMARK   14  A    between atoms: _34  and  _37
REMARK   15  A    between atoms: _37  and  _38
REMARK   16  A    between atoms: _48  and  _50
REMARK   17  A    between atoms: _50  and  _51
REMARK   18  A    between atoms: _50  and  _53
REMARK   19  A    between atoms: _53  and  _54
REMARK   20  A    between atoms: _54  and  _55
REMARK   21  A    between atoms: _55  and  _56
REMARK   22  A    between atoms: _65  and  _67
REMARK   23  A    between atoms: _67  and  _68
REMARK   24  A    between atoms: _67  and  _70
REMARK   25  A    between atoms: _70  and  _71
REMARK   26  A    between atoms: _73  and  _75
REMARK   27  A    between atoms: _75  and  _76
REMARK   28  A    between atoms: _75  and  _78
REMARK   29  A    between atoms: _78  and  _79
REMARK   30  A    between atoms: _84  and  _86
REMARK   31  A    between atoms: _86  and  _87
REMARK   32  A    between atoms: _86  and  _89
REMARK   33  A    between atoms: _89  and  _90
REMARK   34  A    between atoms: _95  and  _96
REMARK   35  A    between atoms: _98  and  _100
REMARK   36  A    between atoms: _100  and  _101
REMARK   37  A    between atoms: _100  and  _103
REMARK   38  A    between atoms: _103  and  _104
REMARK   39  A    between atoms: _104  and  _105
REMARK   40  A    between atoms: _108  and  _110
REMARK   41  A    between atoms: _110  and  _111
REMARK   42  A    between atoms: _110  and  _113
REMARK   43  A    between atoms: _116  and  _118
REMARK   44  A    between atoms: _118  and  _119
REMARK   45  A    between atoms: _118  and  _121
REMARK   46  A    between atoms: _121  and  _122
REMARK   47  A    between atoms: _122  and  _123
REMARK   48  A    between atoms: _123  and  _124
REMARK   49  A    between atoms: _124  and  _125
REMARK   50  A    between atoms: _129  and  _131
REMARK   51  A    between atoms: _131  and  _132
REMARK   52  A    between atoms: _131  and  _134
REMARK   53  A    between atoms: _134  and  _135
REMARK   54  A    between atoms: _140  and  _142
REMARK   55  A    between atoms: _142  and  _143
REMARK   56  A    between atoms: _142  and  _145
REMARK   57  A    between atoms: _145  and  _146
REMARK   58  A    between atoms: _151  and  _152
REMARK   59  A    between atoms: _154  and  _156
REMARK   60  A    between atoms: _156  and  _157
REMARK   61  A    between atoms: _156  and  _159
REMARK   62  A    between atoms: _159  and  _160
REMARK   63  A    between atoms: _160  and  _161
REMARK   64  A    between atoms: _161  and  _162
REMARK   65  A    between atoms: _171  and  _173
REMARK   66  A    between atoms: _173  and  _174
REMARK   67  A    between atoms: _178  and  _180
REMARK   68  A    between atoms: _180  and  _181
REMARK   69  A    between atoms: _180  and  _183
REMARK   70  A    between atoms: _183  and  _184
REMARK   71  A    between atoms: _186  and  _188
REMARK   72  A    between atoms: _188  and  _189
REMARK   73  A    between atoms: _188  and  _191
REMARK   74  A    between atoms: _191  and  _192
REMARK   75  A    between atoms: _192  and  _193
REMARK   76  A    between atoms: _196  and  _198
REMARK   77  A    between atoms: _198  and  _199
REMARK   78  A    between atoms: _198  and  _201
REMARK   79  A    between atoms: _201  and  _202
REMARK   80  A    between atoms: _202  and  _352
REMARK   81  A    between atoms: _203  and  _205
REMARK   82  A    between atoms: _205  and  _206
REMARK   83  A    between atoms: _205  and  _208
REMARK   84  A    between atoms: _208  and  _209
REMARK   85  A    between atoms: _209  and  _210
REMARK   86  A    between atoms: _210  and  _211
REMARK   87  A    between atoms: _220  and  _222
REMARK   88  A    between atoms: _222  and  _223
REMARK   89  A    between atoms: _222  and  _225
REMARK   90  A    between atoms: _225  and  _226
REMARK   91  A    between atoms: _226  and  _227
REMARK   92  A    between atoms: _230  and  _232
REMARK   93  A    between atoms: _232  and  _233
REMARK   94  A    between atoms: _232  and  _235
REMARK   95  A    between atoms: _235  and  _236
REMARK   96  A    between atoms: _236  and  _237
REMARK   97  A    between atoms: _237  and  _238
REMARK   98  A    between atoms: _247  and  _249
REMARK   99  A    between atoms: _249  and  _250
REMARK  100  A    between atoms: _249  and  _252
REMARK  101  A    between atoms: _252  and  _253
REMARK  102  A    between atoms: _255  and  _257
REMARK  103  A    between atoms: _257  and  _258
REMARK  104  A    between atoms: _257  and  _260
REMARK  105  A    between atoms: _260  and  _261
REMARK  106  A    between atoms: _266  and  _267
REMARK  107  A    between atoms: _269  and  _271
REMARK  108  A    between atoms: _271  and  _272
REMARK  109  A    between atoms: _271  and  _274
REMARK  110  A    between atoms: _274  and  _275
REMARK  111  A    between atoms: _280  and  _282
REMARK  112  A    between atoms: _282  and  _283
REMARK  113  A    between atoms: _282  and  _285
REMARK  114  A    between atoms: _288  and  _290
REMARK  115  A    between atoms: _290  and  _291
REMARK  116  A    between atoms: _290  and  _293
REMARK  117  A    between atoms: _293  and  _294
REMARK  118  A    between atoms: _294  and  _295
REMARK  119  A    between atoms: _295  and  _296
REMARK  120  A    between atoms: _305  and  _307
REMARK  121  A    between atoms: _307  and  _308
REMARK  122  A    between atoms: _307  and  _310
REMARK  123  A    between atoms: _310  and  _311
REMARK  124  A    between atoms: _316  and  _318
REMARK  125  A    between atoms: _318  and  _319
REMARK  126  A    between atoms: _318  and  _321
REMARK  127  A    between atoms: _321  and  _322
REMARK  128  A    between atoms: _325  and  _327
REMARK  129  A    between atoms: _327  and  _328
REMARK  130  A    between atoms: _330  and  _332
REMARK  131  A    between atoms: _332  and  _333
REMARK  132  A    between atoms: _332  and  _335
REMARK  133  A    between atoms: _335  and  _336
REMARK  134  A    between atoms: _346  and  _348
REMARK  135  A    between atoms: _348  and  _349
REMARK  136  A    between atoms: _348  and  _351
REMARK  137  A    between atoms: _351  and  _352
REMARK  138  A    between atoms: _353  and  _355
REMARK  139  A    between atoms: _355  and  _356
REMARK  140  A    between atoms: _355  and  _358
REMARK  141  A    between atoms: _358  and  _359
REMARK  142  A    between atoms: _362  and  _364
REMARK  143  A    between atoms: _364  and  _365
REMARK  144  A    between atoms: _367  and  _369
REMARK  145  A    between atoms: _369  and  _370
REMARK  146  A    between atoms: _369  and  _372
REMARK  147  A    between atoms: _372  and  _373
REMARK  148  A    between atoms: _378  and  _379
REMARK  149  A    between atoms: _381  and  _383
REMARK  150  A    between atoms: _383  and  _384
REMARK  151  A    between atoms: _383  and  _386
REMARK  152  A    between atoms: _386  and  _387
REMARK  153  A    between atoms: _387  and  _388
REMARK  154  A    between atoms: _388  and  _389
REMARK  155  A    between atoms: _398  and  _400
REMARK  156  A    between atoms: _400  and  _401
REMARK  157  A    between atoms: _400  and  _403
REMARK  158  A    between atoms: _403  and  _404
REMARK  159  A    between atoms: _407  and  _409
REMARK  160  A    between atoms: _409  and  _410
REMARK  161  A    between atoms: _409  and  _412
REMARK  162  A    between atoms: _412  and  _413
REMARK  163  A    between atoms: _413  and  _414
REMARK  164  A    between atoms: _414  and  _415
REMARK  165  A    between atoms: _415  and  _416
REMARK  166  A    between atoms: _420  and  _422
REMARK  167  A    between atoms: _422  and  _423
REMARK  168  A    between atoms: _425  and  _427
REMARK  169  A    between atoms: _427  and  _428
REMARK  170  A    between atoms: _431  and  _433
REMARK  171  A    between atoms: _433  and  _434
REMARK  172  A    between atoms: _433  and  _436
REMARK  173  A    between atoms: _436  and  _437
REMARK  174  A    between atoms: _442  and  _444
REMARK  175  A    between atoms: _444  and  _445
REMARK  176  A    between atoms: _448  and  _450
REMARK  177  A    between atoms: _450  and  _451
REMARK  178  A    between atoms: _454  and  _455
REMARK  179  A    between atoms: _460  and  _462
REMARK  180  A    between atoms: _462  and  _463
REMARK  181  A    between atoms: _462  and  _465
REMARK  182  A    between atoms: _465  and  _466
REMARK  183  A    between atoms: _469  and  _471
REMARK  184  A    between atoms: _471  and  _472
REMARK  185  A    between atoms: _471  and  _474
REMARK  186  A    between atoms: _474  and  _475
REMARK  187  A    between atoms: _485  and  _487
REMARK  188  A    between atoms: _487  and  _488
REMARK  189  A    between atoms: _487  and  _490
REMARK  190  A    between atoms: _490  and  _491
REMARK  191  A    between atoms: _497  and  _498
REMARK  192  A    between atoms: _503  and  _505
REMARK  193  A    between atoms: _505  and  _506
REMARK  194  A    between atoms: _505  and  _508
REMARK  195  A    between atoms: _508  and  _509
REMARK  196  A    between atoms: _514  and  _516
REMARK  197  A    between atoms: _516  and  _517
REMARK  198  A    between atoms: _516  and  _519
REMARK  199  A    between atoms: _522  and  _524
REMARK  200  A    between atoms: _524  and  _525
REMARK  201  A    between atoms: _524  and  _527
REMARK  202  A    between atoms: _527  and  _528
REMARK  203  A    between atoms: _528  and  _529
REMARK  204  A    between atoms: _535  and  _536
REMARK  205  A    between atoms: _541  and  _543
REMARK  206  A    between atoms: _543  and  _544
REMARK  207  A    between atoms: _543  and  _546
REMARK  208  A    between atoms: _546  and  _547
REMARK  209  A    between atoms: _550  and  _552
REMARK  210  A    between atoms: _552  and  _553
REMARK  211  A    between atoms: _552  and  _555
REMARK  212  A    between atoms: _555  and  _556
REMARK  213  A    between atoms: _558  and  _560
REMARK  214  A    between atoms: _560  and  _561
REMARK  215  A    between atoms: _560  and  _563
REMARK  216  A    between atoms: _563  and  _564
REMARK  217  A    between atoms: _569  and  _570
REMARK  218  A    between atoms: _572  and  _574
REMARK  219  A    between atoms: _574  and  _575
REMARK  220  A    between atoms: _574  and  _577
REMARK  221  A    between atoms: _577  and  _578
REMARK  222  A    between atoms: _588  and  _590
REMARK  223  A    between atoms: _590  and  _591
REMARK  224  A    between atoms: _593  and  _595
REMARK  225  A    between atoms: _595  and  _596
REMARK  226  A    between atoms: _599  and  _601
REMARK  227  A    between atoms: _601  and  _602
REMARK  228  A    between atoms: _601  and  _604
REMARK  229  A    between atoms: _604  and  _605
REMARK  230  A    between atoms: _610  and  _612
REMARK  231  A    between atoms: _612  and  _613
REMARK  232  A    between atoms: _616  and  _618
REMARK  233  A    between atoms: _618  and  _619
REMARK  234  A    between atoms: _622  and  _623
REMARK  235  A    between atoms: _628  and  _630
REMARK  236  A    between atoms: _630  and  _631
REMARK  237  A    between atoms: _630  and  _633
REMARK  238  A    between atoms: _633  and  _634
REMARK  239  A    between atoms: _637  and  _639
REMARK  240  A    between atoms: _639  and  _640
REMARK  241  A    between atoms: _639  and  _642
REMARK  242  A    between atoms: _642  and  _643
REMARK  243  A    between atoms: _653  and  _655
REMARK  244  A    between atoms: _655  and  _656
REMARK  245  A    between atoms: _655  and  _658
REMARK  246  A    between atoms: _658  and  _659
REMARK  247  A    between atoms: _664  and  _666
REMARK  248  A    between atoms: _666  and  _667
REMARK  249  A    between atoms: _666  and  _669
REMARK  250  A    between atoms: _669  and  _670
REMARK  251  A    between atoms: _673  and  _675
REMARK  252  A    between atoms: _675  and  _676
REMARK  253  A    between atoms: _675  and  _678
REMARK  254  A    between atoms: _678  and  _679
REMARK  255  A    between atoms: _679  and  _680
REMARK  256  A    between atoms: _683  and  _685
REMARK  257  A    between atoms: _685  and  _686
REMARK  258  A    between atoms: _685  and  _688
REMARK  259  A    between atoms: _688  and  _689
REMARK  260  A    between atoms: _689  and  _690
REMARK  261  A    between atoms: _690  and  _691
REMARK  262  A    between atoms: _691  and  _692
REMARK  263  A    between atoms: _696  and  _698
REMARK  264  A    between atoms: _698  and  _699
REMARK  265  A    between atoms: _698  and  _701
REMARK  266  A    between atoms: _701  and  _702
REMARK  267  A    between atoms: _707  and  _709
REMARK  268  A    between atoms: _709  and  _710
REMARK  269  A    between atoms: _709  and  _712
REMARK  270  A    between atoms: _712  and  _713
REMARK  271  A    between atoms: _713  and  _714
REMARK  272  A    between atoms: _714  and  _715
REMARK  273  A    between atoms: _724  and  _726
REMARK  274  A    between atoms: _726  and  _727
REMARK  275  A    between atoms: _726  and  _729
REMARK  276  A    between atoms: _729  and  _730
REMARK  277  A    between atoms: _733  and  _735
REMARK  278  A    between atoms: _735  and  _736
REMARK  279  A    between atoms: _735  and  _738
REMARK  280  A    between atoms: _741  and  _743
REMARK  281  A    between atoms: _743  and  _744
REMARK  282  A    between atoms: _743  and  _746
REMARK  283  A    between atoms: _746  and  _747
REMARK  284  A    between atoms: _747  and  _748
REMARK  285  A    between atoms: _754  and  _755
REMARK  286  A    between atoms: _760  and  _762
REMARK  287  A    between atoms: _762  and  _763
REMARK  288  A    between atoms: _762  and  _765
REMARK  289  A    between atoms: _765  and  _766
REMARK  290  A    between atoms: _769  and  _771
REMARK  291  A    between atoms: _771  and  _772
REMARK  292  A    between atoms: _771  and  _774
REMARK  293  A    between atoms: _774  and  _775
REMARK  294  A    between atoms: _775  and  _776
REMARK  295  A    between atoms: _776  and  _777
REMARK  296  A    between atoms: _786  and  _788
REMARK  297  A    between atoms: _788  and  _789
REMARK                            x       y       z     vdW  Elec       q    Type
REMARK                         _______ _______ _______ _____ _____    ______ ____
ROOT
ATOM      1  CA  SER A   1      14.841  18.468  -6.418  0.00  0.00    +0.163 C 
ENDROOT
BRANCH   1   2
ATOM      2  N   SER A   1      16.073  17.776  -6.056  0.00  0.00    -0.237 NA
ATOM      3  H   SER A   1      16.134  16.749  -6.211  0.00  0.00    +0.142 HD
ENDBRANCH   1   2
BRANCH   1   4
ATOM      4  CB  SER A   1      13.644  17.629  -5.970  0.00  0.00    +0.227 C 
ATOM      5  OG  SER A   1      13.811  16.539  -5.437  0.00  0.00    -0.287 OA
ENDBRANCH   1   4
BRANCH   1   6
ATOM      6  C   SER A   1      14.786  18.628  -7.943  0.00  0.00    +0.162 C 
BRANCH   6   7
ATOM      7  O   SER A   1      14.659  17.355  -8.569  0.00  0.00    -0.380 OA
ATOM      8  H   SER A   1      15.438  16.792  -8.330  0.00  0.00    +0.211 HD
ENDBRANCH   6   7
ENDBRANCH   1   6
TORSDOF 4
REMARK  Name = ../refined-set-2016/3o4k/3o4k_pocket.pdb
REMARK  297 active torsions:
REMARK  status: ('A' for Active; 'I' for Inactive)
REMARK    1  A    between atoms: _1  and  _3
REMARK    2  A    between atoms: _3  and  _4
REMARK    3  A    between atoms: _3  and  _6
REMARK    4  A    between atoms: _6  and  _7
REMARK    5  A    between atoms: _7  and  _8
REMARK    6  A    between atoms: _8  and  _9
REMARK    7  A    between atoms: _18  and  _20
REMARK    8  A    between atoms: _20  and  _21
REMARK    9  A    between atoms: _20  and  _23
REMARK   10  A    between atoms: _23  and  _24
REMARK   11  A    between atoms: _29  and  _30
REMARK   12  A    between atoms: _32  and  _34
REMARK   13  A    between atoms: _34  and  _35
REMARK   14  A    between atoms: _34  and  _37
REMARK   15  A    between atoms: _37  and  _38
REMARK   16  A    between atoms: _48  and  _50
REMARK   17  A    between atoms: _50  and  _51
REMARK   18  A    between atoms: _50  and  _53
REMARK   19  A    between atoms: _53  and  _54
REMARK   20  A    between atoms: _54  and  _55
REMARK   21  A    between atoms: _55  and  _56
REMARK   22  A    between atoms: _65  and  _67
REMARK   23  A    between atoms: _67  and  _68
REMARK   24  A    between atoms: _67  and  _70
REMARK   25  A    between atoms: _70  and  _71
REMARK   26  A    between atoms: _73  and  _75
REMARK   27  A    between atoms: _75  and  _76
REMARK   28  A    between atoms: _75  and  _78
REMARK   29  A    between atoms: _78  and  _79
REMARK   30  A    between atoms: _84  and  _86
REMARK   31  A    between atoms: _86  and  _87
REMARK   32  A    between atoms: _86  and  _89
REMARK   33  A    between atoms: _89  and  _90
REMARK   34  A    between atoms: _95  and  _96
REMARK   35  A    between atoms: _98  and  _100
REMARK   36  A    between atoms: _100  and  _101
REMARK   37  A    between atoms: _100  and  _103
REMARK   38  A    between atoms: _103  and  _104
REMARK   39  A    between atoms: _104  and  _105
REMARK   40  A    between atoms: _108  and  _110
REMARK   41  A    between atoms: _110  and  _111
REMARK   42  A    between atoms: _110  and  _113
REMARK   43  A    between atoms: _116  and  _118
REMARK   44  A    between atoms: _118  and  _119
REMARK   45  A    between atoms: _118  and  _121
REMARK   46  A    between atoms: _121  and  _122
REMARK   47  A    between atoms: _122  and  _123
REMARK   48  A    between atoms: _123  and  _124
REMARK   49  A    between atoms: _124  and  _125
REMARK   50  A    between atoms: _129  and  _131
REMARK   51  A    between atoms: _131  and  _132
REMARK   52  A    between atoms: _131  and  _134
REMARK   53  A    between atoms: _134  and  _135
REMARK   54  A    between atoms: _140  and  _142
REMARK   55  A    between atoms: _142  and  _143
REMARK   56  A    between atoms: _142  and  _145
REMARK   57  A    between atoms: _145  and  _146
REMARK   58  A    between atoms: _151  and  _152
REMARK   59  A    between atoms: _154  and  _156
REMARK   60  A    between atoms: _156  and  _157
REMARK   61  A    between atoms: _156  and  _159
REMARK   62  A    between atoms: _159  and  _160
REMARK   63  A    between atoms: _160  and  _161
REMARK   64  A    between atoms: _161  and  _162
REMARK   65  A    between atoms: _171  and  _173
REMARK   66  A    between atoms: _173  and  _174
REMARK   67  A    between atoms: _178  and  _180
REMARK   68  A    between atoms: _180  and  _181
REMARK   69  A    between atoms: _180  and  _183
REMARK   70  A    between atoms: _183  and  _184
REMARK   71  A    between atoms: _186  and  _188
REMARK   72  A    between atoms: _188  and  _189
REMARK   73  A    between atoms: _188  and  _191
REMARK   74  A    between atoms: _191  and  _192
REMARK   75  A    between atoms: _192  and  _193
REMARK   76  A    between atoms: _196  and  _198
REMARK   77  A    between atoms: _198  and  _199
REMARK   78  A    between atoms: _198  and  _201
REMARK   79  A    between atoms: _201  and  _202
REMARK   80  A    between atoms: _202  and  _352
REMARK   81  A    between atoms: _203  and  _205
REMARK   82  A    between atoms: _205  and  _206
REMARK   83  A    between atoms: _205  and  _208
REMARK   84  A    between atoms: _208  and  _209
REMARK   85  A    between atoms: _209  and  _210
REMARK   86  A    between atoms: _210  and  _211
REMARK   87  A    between atoms: _220  and  _222
REMARK   88  A    between atoms: _222  and  _223
REMARK   89  A    between atoms: _222  and  _225
REMARK   90  A    between atoms: _225  and  _226
REMARK   91  A    between atoms: _226  and  _227
REMARK   92  A    between atoms: _230  and  _232
REMARK   93  A    between atoms: _232  and  _233
REMARK   94  A    between atoms: _232  and  _235
REMARK   95  A    between atoms: _235  and  _236
REMARK   96  A    between atoms: _236  and  _237
REMARK   97  A    between atoms: _237  and  _238
REMARK   98  A    between atoms: _247  and  _249
REMARK   99  A    between atoms: _249  and  _250
REMARK  100  A    between atoms: _249  and  _252
REMARK  101  A    between atoms: _252  and  _253
REMARK  102  A    between atoms: _255  and  _257
REMARK  103  A    between atoms: _257  and  _258
REMARK  104  A    between atoms: _257  and  _260
REMARK  105  A    between atoms: _260  and  _261
REMARK  106  A    between atoms: _266  and  _267
REMARK  107  A    between atoms: _269  and  _271
REMARK  108  A    between atoms: _271  and  _272
REMARK  109  A    between atoms: _271  and  _274
REMARK  110  A    between atoms: _274  and  _275
REMARK  111  A    between atoms: _280  and  _282
REMARK  112  A    between atoms: _282  and  _283
REMARK  113  A    between atoms: _282  and  _285
REMARK  114  A    between atoms: _288  and  _290
REMARK  115  A    between atoms: _290  and  _291
REMARK  116  A    between atoms: _290  and  _293
REMARK  117  A    between atoms: _293  and  _294
REMARK  118  A    between atoms: _294  and  _295
REMARK  119  A    between atoms: _295  and  _296
REMARK  120  A    between atoms: _305  and  _307
REMARK  121  A    between atoms: _307  and  _308
REMARK  122  A    between atoms: _307  and  _310
REMARK  123  A    between atoms: _310  and  _311
REMARK  124  A    between atoms: _316  and  _318
REMARK  125  A    between atoms: _318  and  _319
REMARK  126  A    between atoms: _318  and  _321
REMARK  127  A    between atoms: _321  and  _322
REMARK  128  A    between atoms: _325  and  _327
REMARK  129  A    between atoms: _327  and  _328
REMARK  130  A    between atoms: _330  and  _332
REMARK  131  A    between atoms: _332  and  _333
REMARK  132  A    between atoms: _332  and  _335
REMARK  133  A    between atoms: _335  and  _336
REMARK  134  A    between atoms: _346  and  _348
REMARK  135  A    between atoms: _348  and  _349
REMARK  136  A    between atoms: _348  and  _351
REMARK  137  A    between atoms: _351  and  _352
REMARK  138  A    between atoms: _353  and  _355
REMARK  139  A    between atoms: _355  and  _356
REMARK  140  A    between atoms: _355  and  _358
REMARK  141  A    between atoms: _358  and  _359
REMARK  142  A    between atoms: _362  and  _364
REMARK  143  A    between atoms: _364  and  _365
REMARK  144  A    between atoms: _367  and  _369
REMARK  145  A    between atoms: _369  and  _370
REMARK  146  A    between atoms: _369  and  _372
REMARK  147  A    between atoms: _372  and  _373
REMARK  148  A    between atoms: _378  and  _379
REMARK  149  A    between atoms: _381  and  _383
REMARK  150  A    between atoms: _383  and  _384
REMARK  151  A    between atoms: _383  and  _386
REMARK  152  A    between atoms: _386  and  _387
REMARK  153  A    between atoms: _387  and  _388
REMARK  154  A    between atoms: _388  and  _389
REMARK  155  A    between atoms: _398  and  _400
REMARK  156  A    between atoms: _400  and  _401
REMARK  157  A    between atoms: _400  and  _403
REMARK  158  A    between atoms: _403  and  _404
REMARK  159  A    between atoms: _407  and  _409
REMARK  160  A    between atoms: _409  and  _410
REMARK  161  A    between atoms: _409  and  _412
REMARK  162  A    between atoms: _412  and  _413
REMARK  163  A    between atoms: _413  and  _414
REMARK  164  A    between atoms: _414  and  _415
REMARK  165  A    between atoms: _415  and  _416
REMARK  166  A    between atoms: _420  and  _422
REMARK  167  A    between atoms: _422  and  _423
REMARK  168  A    between atoms: _425  and  _427
REMARK  169  A    between atoms: _427  and  _428
REMARK  170  A    between atoms: _431  and  _433
REMARK  171  A    between atoms: _433  and  _434
REMARK  172  A    between atoms: _433  and  _436
REMARK  173  A    between atoms: _436  and  _437
REMARK  174  A    between atoms: _442  and  _444
REMARK  175  A    between atoms: _444  and  _445
REMARK  176  A    between atoms: _448  and  _450
REMARK  177  A    between atoms: _450  and  _451
REMARK  178  A    between atoms: _454  and  _455
REMARK  179  A    between atoms: _460  and  _462
REMARK  180  A    between atoms: _462  and  _463
REMARK  181  A    between atoms: _462  and  _465
REMARK  182  A    between atoms: _465  and  _466
REMARK  183  A    between atoms: _469  and  _471
REMARK  184  A    between atoms: _471  and  _472
REMARK  185  A    between atoms: _471  and  _474
REMARK  186  A    between atoms: _474  and  _475
REMARK  187  A    between atoms: _485  and  _487
REMARK  188  A    between atoms: _487  and  _488
REMARK  189  A    between atoms: _487  and  _490
REMARK  190  A    between atoms: _490  and  _491
REMARK  191  A    between atoms: _497  and  _498
REMARK  192  A    between atoms: _503  and  _505
REMARK  193  A    between atoms: _505  and  _506
REMARK  194  A    between atoms: _505  and  _508
REMARK  195  A    between atoms: _508  and  _509
REMARK  196  A    between atoms: _514  and  _516
REMARK  197  A    between atoms: _516  and  _517
REMARK  198  A    between atoms: _516  and  _519
REMARK  199  A    between atoms: _522  and  _524
REMARK  200  A    between atoms: _524  and  _525
REMARK  201  A    between atoms: _524  and  _527
REMARK  202  A    between atoms: _527  and  _528
REMARK  203  A    between atoms: _528  and  _529
REMARK  204  A    between atoms: _535  and  _536
REMARK  205  A    between atoms: _541  and  _543
REMARK  206  A    between atoms: _543  and  _544
REMARK  207  A    between atoms: _543  and  _546
REMARK  208  A    between atoms: _546  and  _547
REMARK  209  A    between atoms: _550  and  _552
REMARK  210  A    between atoms: _552  and  _553
REMARK  211  A    between atoms: _552  and  _555
REMARK  212  A    between atoms: _555  and  _556
REMARK  213  A    between atoms: _558  and  _560
REMARK  214  A    between atoms: _560  and  _561
REMARK  215  A    between atoms: _560  and  _563
REMARK  216  A    between atoms: _563  and  _564
REMARK  217  A    between atoms: _569  and  _570
REMARK  218  A    between atoms: _572  and  _574
REMARK  219  A    between atoms: _574  and  _575
REMARK  220  A    between atoms: _574  and  _577
REMARK  221  A    between atoms: _577  and  _578
REMARK  222  A    between atoms: _588  and  _590
REMARK  223  A    between atoms: _590  and  _591
REMARK  224  A    between atoms: _593  and  _595
REMARK  225  A    between atoms: _595  and  _596
REMARK  226  A    between atoms: _599  and  _601
REMARK  227  A    between atoms: _601  and  _602
REMARK  228  A    between atoms: _601  and  _604
REMARK  229  A    between atoms: _604  and  _605
REMARK  230  A    between atoms: _610  and  _612
REMARK  231  A    between atoms: _612  and  _613
REMARK  232  A    between atoms: _616  and  _618
REMARK  233  A    between atoms: _618  and  _619
REMARK  234  A    between atoms: _622  and  _623
REMARK  235  A    between atoms: _628  and  _630
REMARK  236  A    between atoms: _630  and  _631
REMARK  237  A    between atoms: _630  and  _633
REMARK  238  A    between atoms: _633  and  _634
REMARK  239  A    between atoms: _637  and  _639
REMARK  240  A    between atoms: _639  and  _640
REMARK  241  A    between atoms: _639  and  _642
REMARK  242  A    between atoms: _642  and  _643
REMARK  243  A    between atoms: _653  and  _655
REMARK  244  A    between atoms: _655  and  _656
REMARK  245  A    between atoms: _655  and  _658
REMARK  246  A    between atoms: _658  and  _659
REMARK  247  A    between atoms: _664  and  _666
REMARK  248  A    between atoms: _666  and  _667
REMARK  249  A    between atoms: _666  and  _669
REMARK  250  A    between atoms: _669  and  _670
REMARK  251  A    between atoms: _673  and  _675
REMARK  252  A    between atoms: _675  and  _676
REMARK  253  A    between atoms: _675  and  _678
REMARK  254  A    between atoms: _678  and  _679
REMARK  255  A    between atoms: _679  and  _680
REMARK  256  A    between atoms: _683  and  _685
REMARK  257  A    between atoms: _685  and  _686
REMARK  258  A    between atoms: _685  and  _688
REMARK  259  A    between atoms: _688  and  _689
REMARK  260  A    between atoms: _689  and  _690
REMARK  261  A    between atoms: _690  and  _691
REMARK  262  A    between atoms: _691  and  _692
REMARK  263  A    between atoms: _696  and  _698
REMARK  264  A    between atoms: _698  and  _699
REMARK  265  A    between atoms: _698  and  _701
REMARK  266  A    between atoms: _701  and  _702
REMARK  267  A    between atoms: _707  and  _709
REMARK  268  A    between atoms: _709  and  _710
REMARK  269  A    between atoms: _709  and  _712
REMARK  270  A    between atoms: _712  and  _713
REMARK  271  A    between atoms: _713  and  _714
REMARK  272  A    between atoms: _714  and  _715
REMARK  273  A    between atoms: _724  and  _726
REMARK  274  A    between atoms: _726  and  _727
REMARK  275  A    between atoms: _726  and  _729
REMARK  276  A    between atoms: _729  and  _730
REMARK  277  A    between atoms: _733  and  _735
REMARK  278  A    between atoms: _735  and  _736
REMARK  279  A    between atoms: _735  and  _738
REMARK  280  A    between atoms: _741  and  _743
REMARK  281  A    between atoms: _743  and  _744
REMARK  282  A    between atoms: _743  and  _746
REMARK  283  A    between atoms: _746  and  _747
REMARK  284  A    between atoms: _747  and  _748
REMARK  285  A    between atoms: _754  and  _755
REMARK  286  A    between atoms: _760  and  _762
REMARK  287  A    between atoms: _762  and  _763
REMARK  288  A    between atoms: _762  and  _765
REMARK  289  A    between atoms: _765  and  _766
REMARK  290  A    between atoms: _769  and  _771
REMARK  291  A    between atoms: _771  and  _772
REMARK  292  A    between atoms: _771  and  _774
REMARK  293  A    between atoms: _774  and  _775
REMARK  294  A    between atoms: _775  and  _776
REMARK  295  A    between atoms: _776  and  _777
REMARK  296  A    between atoms: _786  and  _788
REMARK  297  A    between atoms: _788  and  _789
REMARK                            x       y       z     vdW  Elec       q    Type
REMARK                         _______ _______ _______ _____ _____    ______ ____
ROOT
ATOM      1  CA  TYR A   2      16.237  12.929 -13.490  0.00  0.00    +0.141 C 
ENDROOT
BRANCH   1   3
ATOM      2  C   GLY A   1      15.926  13.913 -15.671  0.00  0.00    +0.240 C 
ATOM      3  N   TYR A   2      15.412  13.234 -14.655  0.00  0.00    -0.298 N 
ATOM      4  H   TYR A   2      14.421  12.919 -14.688  0.00  0.00    +0.150 HD
ATOM      5  O   GLY A   1      17.096  14.264 -15.700  0.00  0.00    -0.274 OA
BRANCH   2   6
ATOM      6  CA  GLY A   1      15.033  14.253 -16.844  0.00  0.00    +0.169 C 
BRANCH   6   7
ATOM      7  N   GLY A   1      13.821  13.482 -17.050  0.00  0.00    -0.236 NA
ATOM      8  H   GLY A   1      12.890  13.930 -16.931  0.00  0.00    +0.142 HD
ENDBRANCH   6   7
ENDBRANCH   2   6
ENDBRANCH   1   3
BRANCH   1   9
ATOM      9  C   TYR A   2      17.074  11.661 -13.626  0.00  0.00    +0.227 C 
ATOM     10  O   TYR A   2      16.695  10.742 -14.340  0.00  0.00    -0.286 OA
ENDBRANCH   1   9
BRANCH   1  11
ATOM     11  CB  TYR A   2      15.357  12.804 -12.255  0.00  0.00    +0.054 C 
BRANCH  11  12
ATOM     12  CG  TYR A   2      14.297  13.873 -12.136  0.00  0.00    -0.020 A 
ATOM     13  CD2 TYR A   2      14.637  15.192 -11.838  0.00  0.00    -0.001 A 
ATOM     14  CE2 TYR A   2      13.654  16.183 -11.717  0.00  0.00    +0.036 A 
ATOM     15  CZ  TYR A   2      12.327  15.842 -11.898  0.00  0.00    +0.134 A 
ATOM     16  CE1 TYR A   2      11.969  14.534 -12.197  0.00  0.00    +0.036 A 
ATOM     17  CD1 TYR A   2      12.952  13.561 -12.313  0.00  0.00    -0.001 A 
BRANCH  15  18
ATOM     18  OH  TYR A   2      11.339  16.791 -11.780  0.00  0.00    -0.506 OA
ATOM     19  HH  TYR A   2      11.748  17.667 -11.566  0.00  0.00    +0.292 HD
ENDBRANCH  15  18
ENDBRANCH  11  12
ENDBRANCH   1  11
TORSDOF 7
REMARK  Name = ../refined-set-2016/3o4k/3o4k_pocket.pdb
REMARK  297 active torsions:
REMARK  status: ('A' for Active; 'I' for Inactive)
REMARK    1  A    between atoms: _1  and  _3
REMARK    2  A    between atoms: _3  and  _4
REMARK    3  A    between atoms: _3  and  _6
REMARK    4  A    between atoms: _6  and  _7
REMARK    5  A    between atoms: _7  and  _8
REMARK    6  A    between atoms: _8  and  _9
REMARK    7  A    between atoms: _18  and  _20
REMARK    8  A    between atoms: _20  and  _21
REMARK    9  A    between atoms: _20  and  _23
REMARK   10  A    between atoms: _23  and  _24
REMARK   11  A    between atoms: _29  and  _30
REMARK   12  A    between atoms: _32  and  _34
REMARK   13  A    between atoms: _34  and  _35
REMARK   14  A    between atoms: _34  and  _37
REMARK   15  A    between atoms: _37  and  _38
REMARK   16  A    between atoms: _48  and  _50
REMARK   17  A    between atoms: _50  and  _51
REMARK   18  A    between atoms: _50  and  _53
REMARK   19  A    between atoms: _53  and  _54
REMARK   20  A    between atoms: _54  and  _55
REMARK   21  A    between atoms: _55  and  _56
REMARK   22  A    between atoms: _65  and  _67
REMARK   23  A    between atoms: _67  and  _68
REMARK   24  A    between atoms: _67  and  _70
REMARK   25  A    between atoms: _70  and  _71
REMARK   26  A    between atoms: _73  and  _75
REMARK   27  A    between atoms: _75  and  _76
REMARK   28  A    between atoms: _75  and  _78
REMARK   29  A    between atoms: _78  and  _79
REMARK   30  A    between atoms: _84  and  _86
REMARK   31  A    between atoms: _86  and  _87
REMARK   32  A    between atoms: _86  and  _89
REMARK   33  A    between atoms: _89  and  _90
REMARK   34  A    between atoms: _95  and  _96
REMARK   35  A    between atoms: _98  and  _100
REMARK   36  A    between atoms: _100  and  _101
REMARK   37  A    between atoms: _100  and  _103
REMARK   38  A    between atoms: _103  and  _104
REMARK   39  A    between atoms: _104  and  _105
REMARK   40  A    between atoms: _108  and  _110
REMARK   41  A    between atoms: _110  and  _111
REMARK   42  A    between atoms: _110  and  _113
REMARK   43  A    between atoms: _116  and  _118
REMARK   44  A    between atoms: _118  and  _119
REMARK   45  A    between atoms: _118  and  _121
REMARK   46  A    between atoms: _121  and  _122
REMARK   47  A    between atoms: _122  and  _123
REMARK   48  A    between atoms: _123  and  _124
REMARK   49  A    between atoms: _124  and  _125
REMARK   50  A    between atoms: _129  and  _131
REMARK   51  A    between atoms: _131  and  _132
REMARK   52  A    between atoms: _131  and  _134
REMARK   53  A    between atoms: _134  and  _135
REMARK   54  A    between atoms: _140  and  _142
REMARK   55  A    between atoms: _142  and  _143
REMARK   56  A    between atoms: _142  and  _145
REMARK   57  A    between atoms: _145  and  _146
REMARK   58  A    between atoms: _151  and  _152
REMARK   59  A    between atoms: _154  and  _156
REMARK   60  A    between atoms: _156  and  _157
REMARK   61  A    between atoms: _156  and  _159
REMARK   62  A    between atoms: _159  and  _160
REMARK   63  A    between atoms: _160  and  _161
REMARK   64  A    between atoms: _161  and  _162
REMARK   65  A    between atoms: _171  and  _173
REMARK   66  A    between atoms: _173  and  _174
REMARK   67  A    between atoms: _178  and  _180
REMARK   68  A    between atoms: _180  and  _181
REMARK   69  A    between atoms: _180  and  _183
REMARK   70  A    between atoms: _183  and  _184
REMARK   71  A    between atoms: _186  and  _188
REMARK   72  A    between atoms: _188  and  _189
REMARK   73  A    between atoms: _188  and  _191
REMARK   74  A    between atoms: _191  and  _192
REMARK   75  A    between atoms: _192  and  _193
REMARK   76  A    between atoms: _196  and  _198
REMARK   77  A    between atoms: _198  and  _199
REMARK   78  A    between atoms: _198  and  _201
REMARK   79  A    between atoms: _201  and  _202
REMARK   80  A    between atoms: _202  and  _352
REMARK   81  A    between atoms: _203  and  _205
REMARK   82  A    between atoms: _205  and  _206
REMARK   83  A    between atoms: _205  and  _208
REMARK   84  A    between atoms: _208  and  _209
REMARK   85  A    between atoms: _209  and  _210
REMARK   86  A    between atoms: _210  and  _211
REMARK   87  A    between atoms: _220  and  _222
REMARK   88  A    between atoms: _222  and  _223
REMARK   89  A    between atoms: _222  and  _225
REMARK   90  A    between atoms: _225  and  _226
REMARK   91  A    between atoms: _226  and  _227
REMARK   92  A    between atoms: _230  and  _232
REMARK   93  A    between atoms: _232  and  _233
REMARK   94  A    between atoms: _232  and  _235
REMARK   95  A    between atoms: _235  and  _236
REMARK   96  A    between atoms: _236  and  _237
REMARK   97  A    between atoms: _237  and  _238
REMARK   98  A    between atoms: _247  and  _249
REMARK   99  A    between atoms: _249  and  _250
REMARK  100  A    between atoms: _249  and  _252
REMARK  101  A    between atoms: _252  and  _253
REMARK  102  A    between atoms: _255  and  _257
REMARK  103  A    between atoms: _257  and  _258
REMARK  104  A    between atoms: _257  and  _260
REMARK  105  A    between atoms: _260  and  _261
REMARK  106  A    between atoms: _266  and  _267
REMARK  107  A    between atoms: _269  and  _271
REMARK  108  A    between atoms: _271  and  _272
REMARK  109  A    between atoms: _271  and  _274
REMARK  110  A    between atoms: _274  and  _275
REMARK  111  A    between atoms: _280  and  _282
REMARK  112  A    between atoms: _282  and  _283
REMARK  113  A    between atoms: _282  and  _285
REMARK  114  A    between atoms: _288  and  _290
REMARK  115  A    between atoms: _290  and  _291
REMARK  116  A    between atoms: _290  and  _293
REMARK  117  A    between atoms: _293  and  _294
REMARK  118  A    between atoms: _294  and  _295
REMARK  119  A    between atoms: _295  and  _296
REMARK  120  A    between atoms: _305  and  _307
REMARK  121  A    between atoms: _307  and  _308
REMARK  122  A    between atoms: _307  and  _310
REMARK  123  A    between atoms: _310  and  _311
REMARK  124  A    between atoms: _316  and  _318
REMARK  125  A    between atoms: _318  and  _319
REMARK  126  A    between atoms: _318  and  _321
REMARK  127  A    between atoms: _321  and  _322
REMARK  128  A    between atoms: _325  and  _327
REMARK  129  A    between atoms: _327  and  _328
REMARK  130  A    between atoms: _330  and  _332
REMARK  131  A    between atoms: _332  and  _333
REMARK  132  A    between atoms: _332  and  _335
REMARK  133  A    between atoms: _335  and  _336
REMARK  134  A    between atoms: _346  and  _348
REMARK  135  A    between atoms: _348  and  _349
REMARK  136  A    between atoms: _348  and  _351
REMARK  137  A    between atoms: _351  and  _352
REMARK  138  A    between atoms: _353  and  _355
REMARK  139  A    between atoms: _355  and  _356
REMARK  140  A    between atoms: _355  and  _358
REMARK  141  A    between atoms: _358  and  _359
REMARK  142  A    between atoms: _362  and  _364
REMARK  143  A    between atoms: _364  and  _365
REMARK  144  A    between atoms: _367  and  _369
REMARK  145  A    between atoms: _369  and  _370
REMARK  146  A    between atoms: _369  and  _372
REMARK  147  A    between atoms: _372  and  _373
REMARK  148  A    between atoms: _378  and  _379
REMARK  149  A    between atoms: _381  and  _383
REMARK  150  A    between atoms: _383  and  _384
REMARK  151  A    between atoms: _383  and  _386
REMARK  152  A    between atoms: _386  and  _387
REMARK  153  A    between atoms: _387  and  _388
REMARK  154  A    between atoms: _388  and  _389
REMARK  155  A    between atoms: _398  and  _400
REMARK  156  A    between atoms: _400  and  _401
REMARK  157  A    between atoms: _400  and  _403
REMARK  158  A    between atoms: _403  and  _404
REMARK  159  A    between atoms: _407  and  _409
REMARK  160  A    between atoms: _409  and  _410
REMARK  161  A    between atoms: _409  and  _412
REMARK  162  A    between atoms: _412  and  _413
REMARK  163  A    between atoms: _413  and  _414
REMARK  164  A    between atoms: _414  and  _415
REMARK  165  A    between atoms: _415  and  _416
REMARK  166  A    between atoms: _420  and  _422
REMARK  167  A    between atoms: _422  and  _423
REMARK  168  A    between atoms: _425  and  _427
REMARK  169  A    between atoms: _427  and  _428
REMARK  170  A    between atoms: _431  and  _433
REMARK  171  A    between atoms: _433  and  _434
REMARK  172  A    between atoms: _433  and  _436
REMARK  173  A    between atoms: _436  and  _437
REMARK  174  A    between atoms: _442  and  _444
REMARK  175  A    between atoms: _444  and  _445
REMARK  176  A    between atoms: _448  and  _450
REMARK  177  A    between atoms: _450  and  _451
REMARK  178  A    between atoms: _454  and  _455
REMARK  179  A    between atoms: _460  and  _462
REMARK  180  A    between atoms: _462  and  _463
REMARK  181  A    between atoms: _462  and  _465
REMARK  182  A    between atoms: _465  and  _466
REMARK  183  A    between atoms: _469  and  _471
REMARK  184  A    between atoms: _471  and  _472
REMARK  185  A    between atoms: _471  and  _474
REMARK  186  A    between atoms: _474  and  _475
REMARK  187  A    between atoms: _485  and  _487
REMARK  188  A    between atoms: _487  and  _488
REMARK  189  A    between atoms: _487  and  _490
REMARK  190  A    between atoms: _490  and  _491
REMARK  191  A    between atoms: _497  and  _498
REMARK  192  A    between atoms: _503  and  _505
REMARK  193  A    between atoms: _505  and  _506
REMARK  194  A    between atoms: _505  and  _508
REMARK  195  A    between atoms: _508  and  _509
REMARK  196  A    between atoms: _514  and  _516
REMARK  197  A    between atoms: _516  and  _517
REMARK  198  A    between atoms: _516  and  _519
REMARK  199  A    between atoms: _522  and  _524
REMARK  200  A    between atoms: _524  and  _525
REMARK  201  A    between atoms: _524  and  _527
REMARK  202  A    between atoms: _527  and  _528
REMARK  203  A    between atoms: _528  and  _529
REMARK  204  A    between atoms: _535  and  _536
REMARK  205  A    between atoms: _541  and  _543
REMARK  206  A    between atoms: _543  and  _544
REMARK  207  A    between atoms: _543  and  _546
REMARK  208  A    between atoms: _546  and  _547
REMARK  209  A    between atoms: _550  and  _552
REMARK  210  A    between atoms: _552  and  _553
REMARK  211  A    between atoms: _552  and  _555
REMARK  212  A    between atoms: _555  and  _556
REMARK  213  A    between atoms: _558  and  _560
REMARK  214  A    between atoms: _560  and  _561
REMARK  215  A    between atoms: _560  and  _563
REMARK  216  A    between atoms: _563  and  _564
REMARK  217  A    between atoms: _569  and  _570
REMARK  218  A    between atoms: _572  and  _574
REMARK  219  A    between atoms: _574  and  _575
REMARK  220  A    between atoms: _574  and  _577
REMARK  221  A    between atoms: _577  and  _578
REMARK  222  A    between atoms: _588  and  _590
REMARK  223  A    between atoms: _590  and  _591
REMARK  224  A    between atoms: _593  and  _595
REMARK  225  A    between atoms: _595  and  _596
REMARK  226  A    between atoms: _599  and  _601
REMARK  227  A    between atoms: _601  and  _602
REMARK  228  A    between atoms: _601  and  _604
REMARK  229  A    between atoms: _604  and  _605
REMARK  230  A    between atoms: _610  and  _612
REMARK  231  A    between atoms: _612  and  _613
REMARK  232  A    between atoms: _616  and  _618
REMARK  233  A    between atoms: _618  and  _619
REMARK  234  A    between atoms: _622  and  _623
REMARK  235  A    between atoms: _628  and  _630
REMARK  236  A    between atoms: _630  and  _631
REMARK  237  A    between atoms: _630  and  _633
REMARK  238  A    between atoms: _633  and  _634
REMARK  239  A    between atoms: _637  and  _639
REMARK  240  A    between atoms: _639  and  _640
REMARK  241  A    between atoms: _639  and  _642
REMARK  242  A    between atoms: _642  and  _643
REMARK  243  A    between atoms: _653  and  _655
REMARK  244  A    between atoms: _655  and  _656
REMARK  245  A    between atoms: _655  and  _658
REMARK  246  A    between atoms: _658  and  _659
REMARK  247  A    between atoms: _664  and  _666
REMARK  248  A    between atoms: _666  and  _667
REMARK  249  A    between atoms: _666  and  _669
REMARK  250  A    between atoms: _669  and  _670
REMARK  251  A    between atoms: _673  and  _675
REMARK  252  A    between atoms: _675  and  _676
REMARK  253  A    between atoms: _675  and  _678
REMARK  254  A    between atoms: _678  and  _679
REMARK  255  A    between atoms: _679  and  _680
REMARK  256  A    between atoms: _683  and  _685
REMARK  257  A    between atoms: _685  and  _686
REMARK  258  A    between atoms: _685  and  _688
REMARK  259  A    between atoms: _688  and  _689
REMARK  260  A    between atoms: _689  and  _690
REMARK  261  A    between atoms: _690  and  _691
REMARK  262  A    between atoms: _691  and  _692
REMARK  263  A    between atoms: _696  and  _698
REMARK  264  A    between atoms: _698  and  _699
REMARK  265  A    between atoms: _698  and  _701
REMARK  266  A    between atoms: _701  and  _702
REMARK  267  A    between atoms: _707  and  _709
REMARK  268  A    between atoms: _709  and  _710
REMARK  269  A    between atoms: _709  and  _712
REMARK  270  A    between atoms: _712  and  _713
REMARK  271  A    between atoms: _713  and  _714
REMARK  272  A    between atoms: _714  and  _715
REMARK  273  A    between atoms: _724  and  _726
REMARK  274  A    between atoms: _726  and  _727
REMARK  275  A    between atoms: _726  and  _729
REMARK  276  A    between atoms: _729  and  _730
REMARK  277  A    between atoms: _733  and  _735
REMARK  278  A    between atoms: _735  and  _736
REMARK  279  A    between atoms: _735  and  _738
REMARK  280  A    between atoms: _741  and  _743
REMARK  281  A    between atoms: _743  and  _744
REMARK  282  A    between atoms: _743  and  _746
REMARK  283  A    between atoms: _746  and  _747
REMARK  284  A    between atoms: _747  and  _748
REMARK  285  A    between atoms: _754  and  _755
REMARK  286  A    between atoms: _760  and  _762
REMARK  287  A    between atoms: _762  and  _763
REMARK  288  A    between atoms: _762  and  _765
REMARK  289  A    between atoms: _765  and  _766
REMARK  290  A    between atoms: _769  and  _771
REMARK  291  A    between atoms: _771  and  _772
REMARK  292  A    between atoms: _771  and  _774
REMARK  293  A    between atoms: _774  and  _775
REMARK  294  A    between atoms: _775  and  _776
REMARK  295  A    between atoms: _776  and  _777
REMARK  296  A    between atoms: _786  and  _788
REMARK  297  A    between atoms: _788  and  _789
REMARK                            x       y       z     vdW  Elec       q    Type
REMARK                         _______ _______ _______ _____ _____    ______ ____
ROOT
ATOM      1  NE  ARG A   1      17.173  12.139 -19.114  0.00  0.00    -0.265 N 
ATOM      2  HE  ARG A   1      16.246  11.810 -18.777  0.00  0.00    +0.259 HD
ATOM      3  CZ  ARG A   1      17.182  13.183 -19.939  0.00  0.00    +0.342 C 
ATOM      4  NH2 ARG A   1      16.032  13.741 -20.294  0.00  0.00    -0.292 N 
ATOM      5 HH21 ARG A   1      15.135  13.362 -19.928  0.00  0.00    +0.255 HD
ATOM      6 HH22 ARG A   1      16.027  14.557 -20.938  0.00  0.00    +0.255 HD
ATOM      7  NH1 ARG A   1      18.323  13.664 -20.413  0.00  0.00    -0.292 N 
ATOM      8 HH11 ARG A   1      19.226  13.225 -20.141  0.00  0.00    +0.255 HD
ATOM      9 HH12 ARG A   1      18.315  14.481 -21.057  0.00  0.00    +0.255 HD
ENDROOT
BRANCH   1  10
ATOM     10  CD  ARG A   1      18.350  11.412 -18.639  0.00  0.00    +0.174 C 
BRANCH  10  11
ATOM     11  CG  ARG A   1      17.919  10.209 -17.781  0.00  0.00    +0.045 C 
BRANCH  11  12
ATOM     12  CB  ARG A   1      19.083   9.461 -17.168  0.00  0.00    +0.029 C 
BRANCH  12  13
ATOM     13  CA  ARG A   1      18.695   8.076 -16.624  0.00  0.00    +0.133 C 
BRANCH  13  14
ATOM     14  N   ARG A   1      17.702   8.189 -15.565  0.00  0.00    -0.239 NA
ATOM     15  H   ARG A   1      17.590   9.089 -15.057  0.00  0.00    +0.142 HD
ENDBRANCH  13  14
BRANCH  13  16
ATOM     16  C   ARG A   1      19.936   7.339 -16.140  0.00  0.00    +0.224 C 
ATOM     17  O   ARG A   1      20.810   7.017 -16.938  0.00  0.00    -0.287 OA
ENDBRANCH  13  16
ENDBRANCH  12  13
ENDBRANCH  11  12
ENDBRANCH  10  11
ENDBRANCH   1  10
TORSDOF 6
REMARK  Name = ../refined-set-2016/3o4k/3o4k_pocket.pdb
REMARK  297 active torsions:
REMARK  status: ('A' for Active; 'I' for Inactive)
REMARK    1  A    between atoms: _1  and  _3
REMARK    2  A    between atoms: _3  and  _4
REMARK    3  A    between atoms: _3  and  _6
REMARK    4  A    between atoms: _6  and  _7
REMARK    5  A    between atoms: _7  and  _8
REMARK    6  A    between atoms: _8  and  _9
REMARK    7  A    between atoms: _18  and  _20
REMARK    8  A    between atoms: _20  and  _21
REMARK    9  A    between atoms: _20  and  _23
REMARK   10  A    between atoms: _23  and  _24
REMARK   11  A    between atoms: _29  and  _30
REMARK   12  A    between atoms: _32  and  _34
REMARK   13  A    between atoms: _34  and  _35
REMARK   14  A    between atoms: _34  and  _37
REMARK   15  A    between atoms: _37  and  _38
REMARK   16  A    between atoms: _48  and  _50
REMARK   17  A    between atoms: _50  and  _51
REMARK   18  A    between atoms: _50  and  _53
REMARK   19  A    between atoms: _53  and  _54
REMARK   20  A    between atoms: _54  and  _55
REMARK   21  A    between atoms: _55  and  _56
REMARK   22  A    between atoms: _65  and  _67
REMARK   23  A    between atoms: _67  and  _68
REMARK   24  A    between atoms: _67  and  _70
REMARK   25  A    between atoms: _70  and  _71
REMARK   26  A    between atoms: _73  and  _75
REMARK   27  A    between atoms: _75  and  _76
REMARK   28  A    between atoms: _75  and  _78
REMARK   29  A    between atoms: _78  and  _79
REMARK   30  A    between atoms: _84  and  _86
REMARK   31  A    between atoms: _86  and  _87
REMARK   32  A    between atoms: _86  and  _89
REMARK   33  A    between atoms: _89  and  _90
REMARK   34  A    between atoms: _95  and  _96
REMARK   35  A    between atoms: _98  and  _100
REMARK   36  A    between atoms: _100  and  _101
REMARK   37  A    between atoms: _100  and  _103
REMARK   38  A    between atoms: _103  and  _104
REMARK   39  A    between atoms: _104  and  _105
REMARK   40  A    between atoms: _108  and  _110
REMARK   41  A    between atoms: _110  and  _111
REMARK   42  A    between atoms: _110  and  _113
REMARK   43  A    between atoms: _116  and  _118
REMARK   44  A    between atoms: _118  and  _119
REMARK   45  A    between atoms: _118  and  _121
REMARK   46  A    between atoms: _121  and  _122
REMARK   47  A    between atoms: _122  and  _123
REMARK   48  A    between atoms: _123  and  _124
REMARK   49  A    between atoms: _124  and  _125
REMARK   50  A    between atoms: _129  and  _131
REMARK   51  A    between atoms: _131  and  _132
REMARK   52  A    between atoms: _131  and  _134
REMARK   53  A    between atoms: _134  and  _135
REMARK   54  A    between atoms: _140  and  _142
REMARK   55  A    between atoms: _142  and  _143
REMARK   56  A    between atoms: _142  and  _145
REMARK   57  A    between atoms: _145  and  _146
REMARK   58  A    between atoms: _151  and  _152
REMARK   59  A    between atoms: _154  and  _156
REMARK   60  A    between atoms: _156  and  _157
REMARK   61  A    between atoms: _156  and  _159
REMARK   62  A    between atoms: _159  and  _160
REMARK   63  A    between atoms: _160  and  _161
REMARK   64  A    between atoms: _161  and  _162
REMARK   65  A    between atoms: _171  and  _173
REMARK   66  A    between atoms: _173  and  _174
REMARK   67  A    between atoms: _178  and  _180
REMARK   68  A    between atoms: _180  and  _181
REMARK   69  A    between atoms: _180  and  _183
REMARK   70  A    between atoms: _183  and  _184
REMARK   71  A    between atoms: _186  and  _188
REMARK   72  A    between atoms: _188  and  _189
REMARK   73  A    between atoms: _188  and  _191
REMARK   74  A    between atoms: _191  and  _192
REMARK   75  A    between atoms: _192  and  _193
REMARK   76  A    between atoms: _196  and  _198
REMARK   77  A    between atoms: _198  and  _199
REMARK   78  A    between atoms: _198  and  _201
REMARK   79  A    between atoms: _201  and  _202
REMARK   80  A    between atoms: _202  and  _352
REMARK   81  A    between atoms: _203  and  _205
REMARK   82  A    between atoms: _205  and  _206
REMARK   83  A    between atoms: _205  and  _208
REMARK   84  A    between atoms: _208  and  _209
REMARK   85  A    between atoms: _209  and  _210
REMARK   86  A    between atoms: _210  and  _211
REMARK   87  A    between atoms: _220  and  _222
REMARK   88  A    between atoms: _222  and  _223
REMARK   89  A    between atoms: _222  and  _225
REMARK   90  A    between atoms: _225  and  _226
REMARK   91  A    between atoms: _226  and  _227
REMARK   92  A    between atoms: _230  and  _232
REMARK   93  A    between atoms: _232  and  _233
REMARK   94  A    between atoms: _232  and  _235
REMARK   95  A    between atoms: _235  and  _236
REMARK   96  A    between atoms: _236  and  _237
REMARK   97  A    between atoms: _237  and  _238
REMARK   98  A    between atoms: _247  and  _249
REMARK   99  A    between atoms: _249  and  _250
REMARK  100  A    between atoms: _249  and  _252
REMARK  101  A    between atoms: _252  and  _253
REMARK  102  A    between atoms: _255  and  _257
REMARK  103  A    between atoms: _257  and  _258
REMARK  104  A    between atoms: _257  and  _260
REMARK  105  A    between atoms: _260  and  _261
REMARK  106  A    between atoms: _266  and  _267
REMARK  107  A    between atoms: _269  and  _271
REMARK  108  A    between atoms: _271  and  _272
REMARK  109  A    between atoms: _271  and  _274
REMARK  110  A    between atoms: _274  and  _275
REMARK  111  A    between atoms: _280  and  _282
REMARK  112  A    between atoms: _282  and  _283
REMARK  113  A    between atoms: _282  and  _285
REMARK  114  A    between atoms: _288  and  _290
REMARK  115  A    between atoms: _290  and  _291
REMARK  116  A    between atoms: _290  and  _293
REMARK  117  A    between atoms: _293  and  _294
REMARK  118  A    between atoms: _294  and  _295
REMARK  119  A    between atoms: _295  and  _296
REMARK  120  A    between atoms: _305  and  _307
REMARK  121  A    between atoms: _307  and  _308
REMARK  122  A    between atoms: _307  and  _310
REMARK  123  A    between atoms: _310  and  _311
REMARK  124  A    between atoms: _316  and  _318
REMARK  125  A    between atoms: _318  and  _319
REMARK  126  A    between atoms: _318  and  _321
REMARK  127  A    between atoms: _321  and  _322
REMARK  128  A    between atoms: _325  and  _327
REMARK  129  A    between atoms: _327  and  _328
REMARK  130  A    between atoms: _330  and  _332
REMARK  131  A    between atoms: _332  and  _333
REMARK  132  A    between atoms: _332  and  _335
REMARK  133  A    between atoms: _335  and  _336
REMARK  134  A    between atoms: _346  and  _348
REMARK  135  A    between atoms: _348  and  _349
REMARK  136  A    between atoms: _348  and  _351
REMARK  137  A    between atoms: _351  and  _352
REMARK  138  A    between atoms: _353  and  _355
REMARK  139  A    between atoms: _355  and  _356
REMARK  140  A    between atoms: _355  and  _358
REMARK  141  A    between atoms: _358  and  _359
REMARK  142  A    between atoms: _362  and  _364
REMARK  143  A    between atoms: _364  and  _365
REMARK  144  A    between atoms: _367  and  _369
REMARK  145  A    between atoms: _369  and  _370
REMARK  146  A    between atoms: _369  and  _372
REMARK  147  A    between atoms: _372  and  _373
REMARK  148  A    between atoms: _378  and  _379
REMARK  149  A    between atoms: _381  and  _383
REMARK  150  A    between atoms: _383  and  _384
REMARK  151  A    between atoms: _383  and  _386
REMARK  152  A    between atoms: _386  and  _387
REMARK  153  A    between atoms: _387  and  _388
REMARK  154  A    between atoms: _388  and  _389
REMARK  155  A    between atoms: _398  and  _400
REMARK  156  A    between atoms: _400  and  _401
REMARK  157  A    between atoms: _400  and  _403
REMARK  158  A    between atoms: _403  and  _404
REMARK  159  A    between atoms: _407  and  _409
REMARK  160  A    between atoms: _409  and  _410
REMARK  161  A    between atoms: _409  and  _412
REMARK  162  A    between atoms: _412  and  _413
REMARK  163  A    between atoms: _413  and  _414
REMARK  164  A    between atoms: _414  and  _415
REMARK  165  A    between atoms: _415  and  _416
REMARK  166  A    between atoms: _420  and  _422
REMARK  167  A    between atoms: _422  and  _423
REMARK  168  A    between atoms: _425  and  _427
REMARK  169  A    between atoms: _427  and  _428
REMARK  170  A    between atoms: _431  and  _433
REMARK  171  A    between atoms: _433  and  _434
REMARK  172  A    between atoms: _433  and  _436
REMARK  173  A    between atoms: _436  and  _437
REMARK  174  A    between atoms: _442  and  _444
REMARK  175  A    between atoms: _444  and  _445
REMARK  176  A    between atoms: _448  and  _450
REMARK  177  A    between atoms: _450  and  _451
REMARK  178  A    between atoms: _454  and  _455
REMARK  179  A    between atoms: _460  and  _462
REMARK  180  A    between atoms: _462  and  _463
REMARK  181  A    between atoms: _462  and  _465
REMARK  182  A    between atoms: _465  and  _466
REMARK  183  A    between atoms: _469  and  _471
REMARK  184  A    between atoms: _471  and  _472
REMARK  185  A    between atoms: _471  and  _474
REMARK  186  A    between atoms: _474  and  _475
REMARK  187  A    between atoms: _485  and  _487
REMARK  188  A    between atoms: _487  and  _488
REMARK  189  A    between atoms: _487  and  _490
REMARK  190  A    between atoms: _490  and  _491
REMARK  191  A    between atoms: _497  and  _498
REMARK  192  A    between atoms: _503  and  _505
REMARK  193  A    between atoms: _505  and  _506
REMARK  194  A    between atoms: _505  and  _508
REMARK  195  A    between atoms: _508  and  _509
REMARK  196  A    between atoms: _514  and  _516
REMARK  197  A    between atoms: _516  and  _517
REMARK  198  A    between atoms: _516  and  _519
REMARK  199  A    between atoms: _522  and  _524
REMARK  200  A    between atoms: _524  and  _525
REMARK  201  A    between atoms: _524  and  _527
REMARK  202  A    between atoms: _527  and  _528
REMARK  203  A    between atoms: _528  and  _529
REMARK  204  A    between atoms: _535  and  _536
REMARK  205  A    between atoms: _541  and  _543
REMARK  206  A    between atoms: _543  and  _544
REMARK  207  A    between atoms: _543  and  _546
REMARK  208  A    between atoms: _546  and  _547
REMARK  209  A    between atoms: _550  and  _552
REMARK  210  A    between atoms: _552  and  _553
REMARK  211  A    between atoms: _552  and  _555
REMARK  212  A    between atoms: _555  and  _556
REMARK  213  A    between atoms: _558  and  _560
REMARK  214  A    between atoms: _560  and  _561
REMARK  215  A    between atoms: _560  and  _563
REMARK  216  A    between atoms: _563  and  _564
REMARK  217  A    between atoms: _569  and  _570
REMARK  218  A    between atoms: _572  and  _574
REMARK  219  A    between atoms: _574  and  _575
REMARK  220  A    between atoms: _574  and  _577
REMARK  221  A    between atoms: _577  and  _578
REMARK  222  A    between atoms: _588  and  _590
REMARK  223  A    between atoms: _590  and  _591
REMARK  224  A    between atoms: _593  and  _595
REMARK  225  A    between atoms: _595  and  _596
REMARK  226  A    between atoms: _599  and  _601
REMARK  227  A    between atoms: _601  and  _602
REMARK  228  A    between atoms: _601  and  _604
REMARK  229  A    between atoms: _604  and  _605
REMARK  230  A    between atoms: _610  and  _612
REMARK  231  A    between atoms: _612  and  _613
REMARK  232  A    between atoms: _616  and  _618
REMARK  233  A    between atoms: _618  and  _619
REMARK  234  A    between atoms: _622  and  _623
REMARK  235  A    between atoms: _628  and  _630
REMARK  236  A    between atoms: _630  and  _631
REMARK  237  A    between atoms: _630  and  _633
REMARK  238  A    between atoms: _633  and  _634
REMARK  239  A    between atoms: _637  and  _639
REMARK  240  A    between atoms: _639  and  _640
REMARK  241  A    between atoms: _639  and  _642
REMARK  242  A    between atoms: _642  and  _643
REMARK  243  A    between atoms: _653  and  _655
REMARK  244  A    between atoms: _655  and  _656
REMARK  245  A    between atoms: _655  and  _658
REMARK  246  A    between atoms: _658  and  _659
REMARK  247  A    between atoms: _664  and  _666
REMARK  248  A    between atoms: _666  and  _667
REMARK  249  A    between atoms: _666  and  _669
REMARK  250  A    between atoms: _669  and  _670
REMARK  251  A    between atoms: _673  and  _675
REMARK  252  A    between atoms: _675  and  _676
REMARK  253  A    between atoms: _675  and  _678
REMARK  254  A    between atoms: _678  and  _679
REMARK  255  A    between atoms: _679  and  _680
REMARK  256  A    between atoms: _683  and  _685
REMARK  257  A    between atoms: _685  and  _686
REMARK  258  A    between atoms: _685  and  _688
REMARK  259  A    between atoms: _688  and  _689
REMARK  260  A    between atoms: _689  and  _690
REMARK  261  A    between atoms: _690  and  _691
REMARK  262  A    between atoms: _691  and  _692
REMARK  263  A    between atoms: _696  and  _698
REMARK  264  A    between atoms: _698  and  _699
REMARK  265  A    between atoms: _698  and  _701
REMARK  266  A    between atoms: _701  and  _702
REMARK  267  A    between atoms: _707  and  _709
REMARK  268  A    between atoms: _709  and  _710
REMARK  269  A    between atoms: _709  and  _712
REMARK  270  A    between atoms: _712  and  _713
REMARK  271  A    between atoms: _713  and  _714
REMARK  272  A    between atoms: _714  and  _715
REMARK  273  A    between atoms: _724  and  _726
REMARK  274  A    between atoms: _726  and  _727
REMARK  275  A    between atoms: _726  and  _729
REMARK  276  A    between atoms: _729  and  _730
REMARK  277  A    between atoms: _733  and  _735
REMARK  278  A    between atoms: _735  and  _736
REMARK  279  A    between atoms: _735  and  _738
REMARK  280  A    between atoms: _741  and  _743
REMARK  281  A    between atoms: _743  and  _744
REMARK  282  A    between atoms: _743  and  _746
REMARK  283  A    between atoms: _746  and  _747
REMARK  284  A    between atoms: _747  and  _748
REMARK  285  A    between atoms: _754  and  _755
REMARK  286  A    between atoms: _760  and  _762
REMARK  287  A    between atoms: _762  and  _763
REMARK  288  A    between atoms: _762  and  _765
REMARK  289  A    between atoms: _765  and  _766
REMARK  290  A    between atoms: _769  and  _771
REMARK  291  A    between atoms: _771  and  _772
REMARK  292  A    between atoms: _771  and  _774
REMARK  293  A    between atoms: _774  and  _775
REMARK  294  A    between atoms: _775  and  _776
REMARK  295  A    between atoms: _776  and  _777
REMARK  296  A    between atoms: _786  and  _788
REMARK  297  A    between atoms: _788  and  _789
REMARK                            x       y       z     vdW  Elec       q    Type
REMARK                         _______ _______ _______ _____ _____    ______ ____
ROOT
ATOM      1  CA  GLY A   7      20.111  23.496 -16.684  0.00  0.00    +0.176 C 
ENDROOT
BRANCH   1   2
ATOM      2  C   GLY A   7      21.354  23.055 -17.431  0.00  0.00    +0.246 C 
ATOM      3  O   GLY A   7      21.973  22.052 -17.074  0.00  0.00    -0.273 OA
ATOM      4  N   PRO A   8      21.751  23.808 -18.477  0.00  0.00    -0.272 N 
ATOM      5  CD  PRO A   8      21.015  24.982 -18.985  0.00  0.00    +0.094 C 
ATOM      6  CG  PRO A   8      22.070  25.677 -19.812  0.00  0.00    +0.024 C 
ATOM      7  CB  PRO A   8      22.773  24.512 -20.469  0.00  0.00    +0.031 C 
ATOM      8  CA  PRO A   8      22.927  23.524 -19.315  0.00  0.00    +0.152 C 
BRANCH   8   9
ATOM      9  C   PRO A   8      24.285  23.634 -18.628  0.00  0.00    +0.241 C 
ATOM     10  N   THR A   9      24.343  24.423 -17.567  0.00  0.00    -0.295 N 
ATOM     11  H   THR A   9      23.489  24.932 -17.261  0.00  0.00    +0.150 HD
ATOM     12  O   PRO A   8      25.265  23.011 -19.053  0.00  0.00    -0.273 OA
BRANCH  10  13
ATOM     13  CA  THR A   9      25.579  24.590 -16.824  0.00  0.00    +0.176 C 
BRANCH  13  14
ATOM     14  C   THR A   9      25.758  23.464 -15.805  0.00  0.00    +0.243 C 
ATOM     15  N   TRP A  10      24.658  23.008 -15.216  0.00  0.00    -0.297 N 
ATOM     16  H   TRP A  10      23.729  23.397 -15.473  0.00  0.00    +0.150 HD
ATOM     17  O   THR A   9      26.878  23.005 -15.564  0.00  0.00    -0.273 OA
BRANCH  15  18
ATOM     18  CA  TRP A  10      24.758  21.964 -14.212  0.00  0.00    +0.153 C 
BRANCH  18  19
ATOM     19  C   TRP A  10      24.450  20.544 -14.686  0.00  0.00    +0.241 C 
ATOM     20  O   TRP A  10      25.064  19.600 -14.184  0.00  0.00    -0.273 OA
ATOM     21  N   ASN A  11      23.555  20.365 -15.655  0.00  0.00    -0.297 N 
ATOM     22  H   ASN A  11      23.077  21.177 -16.094  0.00  0.00    +0.150 HD
BRANCH  21  23
ATOM     23  CA  ASN A  11      23.260  19.000 -16.088  0.00  0.00    +0.158 C 
BRANCH  23  24
ATOM     24  C   ASN A  11      24.482  18.130 -16.403  0.00  0.00    +0.244 C 
ATOM     25  O   ASN A  11      24.574  16.995 -15.943  0.00  0.00    -0.273 OA
ATOM     26  N   PRO A  12      25.431  18.648 -17.193  0.00  0.00    -0.273 N 
ATOM     27  CA  PRO A  12      26.631  17.889 -17.564  0.00  0.00    +0.140 C 
ATOM     28  CB  PRO A  12      27.216  18.720 -18.701  0.00  0.00    +0.030 C 
ATOM     29  CG  PRO A  12      26.866  20.124 -18.285  0.00  0.00    +0.024 C 
ATOM     30  CD  PRO A  12      25.421  19.968 -17.852  0.00  0.00    +0.094 C 
BRANCH  27  31
ATOM     31  C   PRO A  12      27.661  17.595 -16.471  0.00  0.00    +0.227 C 
ATOM     32  O   PRO A  12      28.569  16.787 -16.679  0.00  0.00    -0.286 OA
ENDBRANCH  27  31
ENDBRANCH  23  24
BRANCH  23  33
ATOM     33  CB  ASN A  11      22.329  18.983 -17.304  0.00  0.00    +0.114 C 
BRANCH  33  34
ATOM     34  CG  ASN A  11      20.920  19.416 -16.969  0.00  0.00    +0.222 C 
ATOM     35  OD1 ASN A  11      20.407  19.134 -15.895  0.00  0.00    -0.275 OA
ATOM     36  ND2 ASN A  11      20.286  20.094 -17.897  0.00  0.00    -0.329 N 
ATOM     37 HD21 ASN A  11      19.310  20.413 -17.733  0.00  0.00    +0.145 HD
ATOM     38 HD22 ASN A  11      20.760  20.312 -18.797  0.00  0.00    +0.145 HD
ENDBRANCH  33  34
ENDBRANCH  23  33
ENDBRANCH  21  23
ENDBRANCH  18  19
BRANCH  18  39
ATOM     39  CB  TRP A  10      23.898  22.317 -12.998  0.00  0.00    +0.057 C 
BRANCH  39  40
ATOM     40  CG  TRP A  10      24.448  23.476 -12.235  0.00  0.00    -0.002 A 
ATOM     41  CD2 TRP A  10      25.456  23.426 -11.221  0.00  0.00    +0.013 A 
ATOM     42  CE3 TRP A  10      26.148  22.382 -10.594  0.00  0.00    +0.001 A 
ATOM     43  CZ3 TRP A  10      27.094  22.695  -9.633  0.00  0.00    +0.000 A 
ATOM     44  CH2 TRP A  10      27.363  24.038  -9.283  0.00  0.00    +0.001 A 
ATOM     45  CZ2 TRP A  10      26.700  25.081  -9.879  0.00  0.00    +0.017 A 
ATOM     46  CE2 TRP A  10      25.746  24.763 -10.849  0.00  0.00    +0.056 A 
ATOM     47  NE1 TRP A  10      24.944  25.582 -11.601  0.00  0.00    -0.352 N 
ATOM     48  HE1 TRP A  10      24.927  26.621 -11.554  0.00  0.00    +0.166 HD
ATOM     49  CD1 TRP A  10      24.165  24.804 -12.429  0.00  0.00    +0.068 A 
ENDBRANCH  39  40
ENDBRANCH  18  39
ENDBRANCH  15  18
ENDBRANCH  13  14
BRANCH  13  50
ATOM     50  CB  THR A   9      25.582  25.926 -16.071  0.00  0.00    +0.137 C 
ATOM     51  CG2 THR A   9      26.875  26.098 -15.285  0.00  0.00    +0.034 C 
BRANCH  50  52
ATOM     52  OG1 THR A   9      25.443  26.997 -17.014  0.00  0.00    -0.382 OA
ATOM     53  HG1 THR A   9      25.444  27.862 -16.532  0.00  0.00    +0.210 HD
ENDBRANCH  50  52
ENDBRANCH  13  50
ENDBRANCH  10  13
ENDBRANCH   8   9
ENDBRANCH   1   2
BRANCH   1  56
ATOM     54  C   ALA A   6      19.913  22.613 -14.449  0.00  0.00    +0.241 C 
ATOM     55  O   ALA A   6      20.696  23.463 -14.018  0.00  0.00    -0.273 OA
ATOM     56  N   GLY A   7      19.576  22.534 -15.733  0.00  0.00    -0.295 N 
ATOM     57  H   GLY A   7      18.931  21.785 -16.057  0.00  0.00    +0.150 HD
BRANCH  54  58
ATOM     58  CA  ALA A   6      19.307  21.587 -13.495  0.00  0.00    +0.149 C 
ATOM     59  CB  ALA A   6      20.320  21.225 -12.412  0.00  0.00    +0.031 C 
BRANCH  58  62
ATOM     60  C   HIS A   5      17.611  19.900 -13.723  0.00  0.00    +0.241 C 
ATOM     61  O   HIS A   5      16.917  20.463 -12.876  0.00  0.00    -0.273 OA
ATOM     62  N   ALA A   6      18.794  20.368 -14.108  0.00  0.00    -0.297 N 
ATOM     63  H   ALA A   6      19.346  19.871 -14.836  0.00  0.00    +0.150 HD
BRANCH  60  64
ATOM     64  CA  HIS A   5      17.128  18.608 -14.355  0.00  0.00    +0.155 C 
BRANCH  64  66
ATOM     65  C   ALA A   4      17.074  17.741 -16.600  0.00  0.00    +0.241 C 
ATOM     66  N   HIS A   5      17.777  18.258 -15.602  0.00  0.00    -0.297 N 
ATOM     67  H   HIS A   5      18.799  18.413 -15.715  0.00  0.00    +0.150 HD
ATOM     68  O   ALA A   4      15.847  17.629 -16.552  0.00  0.00    -0.273 OA
BRANCH  65  69
ATOM     69  CA  ALA A   4      17.862  17.318 -17.851  0.00  0.00    +0.149 C 
ATOM     70  CB  ALA A   4      16.923  17.204 -19.053  0.00  0.00    +0.031 C 
BRANCH  69  72
ATOM     71  C   GLY A   3      19.681  15.676 -17.615  0.00  0.00    +0.243 C 
ATOM     72  N   ALA A   4      18.401  16.001 -17.519  0.00  0.00    -0.297 N 
ATOM     73  H   ALA A   4      17.737  15.273 -17.186  0.00  0.00    +0.150 HD
ATOM     74  O   GLY A   3      20.540  16.443 -18.050  0.00  0.00    -0.273 OA
BRANCH  71  75
ATOM     75  CA  GLY A   3      20.037  14.263 -17.187  0.00  0.00    +0.176 C 
BRANCH  75  77
ATOM     76  C   LYS A   2      21.935  13.475 -18.452  0.00  0.00    +0.241 C 
ATOM     77  N   GLY A   3      21.460  14.021 -17.359  0.00  0.00    -0.295 N 
ATOM     78  H   GLY A   3      22.116  14.287 -16.597  0.00  0.00    +0.150 HD
ATOM     79  O   LYS A   2      21.229  13.180 -19.358  0.00  0.00    -0.273 OA
BRANCH  76  80
ATOM     80  CA  LYS A   2      23.429  13.238 -18.527  0.00  0.00    +0.149 C 
BRANCH  80  83
ATOM     81  C   ILE A   1      23.271  10.851 -18.316  0.00  0.00    +0.238 C 
ATOM     82  O   ILE A   1      22.638  10.984 -17.279  0.00  0.00    -0.274 OA
ATOM     83  N   LYS A   2      23.719  11.897 -18.986  0.00  0.00    -0.297 N 
ATOM     84  H   LYS A   2      24.283  11.756 -19.848  0.00  0.00    +0.150 HD
BRANCH  81  85
ATOM     85  CA  ILE A   1      23.600   9.457 -18.854  0.00  0.00    +0.145 C 
BRANCH  85  86
ATOM     86  CB  ILE A   1      22.322   8.828 -19.433  0.00  0.00    +0.025 C 
ATOM     87  CG2 ILE A   1      21.696   9.774 -20.457  0.00  0.00    +0.002 C 
BRANCH  86  88
ATOM     88  CG1 ILE A   1      22.652   7.481 -20.093  0.00  0.00    +0.002 C 
ATOM     89  CD1 ILE A   1      23.485   7.582 -21.369  0.00  0.00    +0.000 C 
ENDBRANCH  86  88
ENDBRANCH  85  86
BRANCH  85  90
ATOM     90  N   ILE A   1      24.200   8.583 -17.859  0.00  0.00    -0.238 NA
ATOM     91  H   ILE A   1      23.625   8.172 -17.096  0.00  0.00    +0.142 HD
ENDBRANCH  85  90
ENDBRANCH  81  85
ENDBRANCH  80  83
BRANCH  80  92
ATOM     92  CB  LYS A   2      24.045  14.241 -19.469  0.00  0.00    +0.029 C 
BRANCH  92  93
ATOM     93  CG  LYS A   2      23.873  15.627 -19.020  0.00  0.00    +0.000 C 
BRANCH  93  94
ATOM     94  CD  LYS A   2      24.626  16.583 -19.851  0.00  0.00    -0.024 C 
BRANCH  94  95
ATOM     95  CE  LYS A   2      24.310  16.395 -21.257  0.00  0.00    -0.086 C 
BRANCH  95  96
ATOM     96  NZ  LYS A   2      22.970  16.729 -21.554  0.00  0.00    +0.380 N 
ATOM     97  HZ1 LYS A   2      22.332  16.126 -20.996  0.00  0.00    -0.089 HD
ATOM     98  HZ2 LYS A   2      22.802  17.727 -21.316  0.00  0.00    -0.089 HD
ATOM     99  HZ3 LYS A   2      22.793  16.579 -22.568  0.00  0.00    -0.089 HD
ENDBRANCH  95  96
ENDBRANCH  94  95
ENDBRANCH  93  94
ENDBRANCH  92  93
ENDBRANCH  80  92
ENDBRANCH  76  80
ENDBRANCH  75  77
ENDBRANCH  71  75
ENDBRANCH  69  72
ENDBRANCH  65  69
ENDBRANCH  64  66
BRANCH  64 100
ATOM    100  CB  HIS A   5      17.357  17.463 -13.380  0.00  0.00    +0.076 C 
BRANCH 100 101
ATOM    101  CG  HIS A   5      18.800  17.084 -13.256  0.00  0.00    +0.082 A 
ATOM    102  ND1 HIS A   5      19.695  17.816 -12.510  0.00  0.00    -0.227 NA
ATOM    103  CE1 HIS A   5      20.907  17.310 -12.657  0.00  0.00    +0.199 A 
ATOM    104  NE2 HIS A   5      20.829  16.272 -13.470  0.00  0.00    -0.221 NA
ATOM    105  CD2 HIS A   5      19.522  16.105 -13.856  0.00  0.00    +0.115 A 
ENDBRANCH 100 101
ENDBRANCH  64 100
ENDBRANCH  60  64
ENDBRANCH  58  62
ENDBRANCH  54  58
ENDBRANCH   1  56
TORSDOF 37
REMARK  Name = ../refined-set-2016/3o4k/3o4k_pocket.pdb
REMARK  297 active torsions:
REMARK  status: ('A' for Active; 'I' for Inactive)
REMARK    1  A    between atoms: _1  and  _3
REMARK    2  A    between atoms: _3  and  _4
REMARK    3  A    between atoms: _3  and  _6
REMARK    4  A    between atoms: _6  and  _7
REMARK    5  A    between atoms: _7  and  _8
REMARK    6  A    between atoms: _8  and  _9
REMARK    7  A    between atoms: _18  and  _20
REMARK    8  A    between atoms: _20  and  _21
REMARK    9  A    between atoms: _20  and  _23
REMARK   10  A    between atoms: _23  and  _24
REMARK   11  A    between atoms: _29  and  _30
REMARK   12  A    between atoms: _32  and  _34
REMARK   13  A    between atoms: _34  and  _35
REMARK   14  A    between atoms: _34  and  _37
REMARK   15  A    between atoms: _37  and  _38
REMARK   16  A    between atoms: _48  and  _50
REMARK   17  A    between atoms: _50  and  _51
REMARK   18  A    between atoms: _50  and  _53
REMARK   19  A    between atoms: _53  and  _54
REMARK   20  A    between atoms: _54  and  _55
REMARK   21  A    between atoms: _55  and  _56
REMARK   22  A    between atoms: _65  and  _67
REMARK   23  A    between atoms: _67  and  _68
REMARK   24  A    between atoms: _67  and  _70
REMARK   25  A    between atoms: _70  and  _71
REMARK   26  A    between atoms: _73  and  _75
REMARK   27  A    between atoms: _75  and  _76
REMARK   28  A    between atoms: _75  and  _78
REMARK   29  A    between atoms: _78  and  _79
REMARK   30  A    between atoms: _84  and  _86
REMARK   31  A    between atoms: _86  and  _87
REMARK   32  A    between atoms: _86  and  _89
REMARK   33  A    between atoms: _89  and  _90
REMARK   34  A    between atoms: _95  and  _96
REMARK   35  A    between atoms: _98  and  _100
REMARK   36  A    between atoms: _100  and  _101
REMARK   37  A    between atoms: _100  and  _103
REMARK   38  A    between atoms: _103  and  _104
REMARK   39  A    between atoms: _104  and  _105
REMARK   40  A    between atoms: _108  and  _110
REMARK   41  A    between atoms: _110  and  _111
REMARK   42  A    between atoms: _110  and  _113
REMARK   43  A    between atoms: _116  and  _118
REMARK   44  A    between atoms: _118  and  _119
REMARK   45  A    between atoms: _118  and  _121
REMARK   46  A    between atoms: _121  and  _122
REMARK   47  A    between atoms: _122  and  _123
REMARK   48  A    between atoms: _123  and  _124
REMARK   49  A    between atoms: _124  and  _125
REMARK   50  A    between atoms: _129  and  _131
REMARK   51  A    between atoms: _131  and  _132
REMARK   52  A    between atoms: _131  and  _134
REMARK   53  A    between atoms: _134  and  _135
REMARK   54  A    between atoms: _140  and  _142
REMARK   55  A    between atoms: _142  and  _143
REMARK   56  A    between atoms: _142  and  _145
REMARK   57  A    between atoms: _145  and  _146
REMARK   58  A    between atoms: _151  and  _152
REMARK   59  A    between atoms: _154  and  _156
REMARK   60  A    between atoms: _156  and  _157
REMARK   61  A    between atoms: _156  and  _159
REMARK   62  A    between atoms: _159  and  _160
REMARK   63  A    between atoms: _160  and  _161
REMARK   64  A    between atoms: _161  and  _162
REMARK   65  A    between atoms: _171  and  _173
REMARK   66  A    between atoms: _173  and  _174
REMARK   67  A    between atoms: _178  and  _180
REMARK   68  A    between atoms: _180  and  _181
REMARK   69  A    between atoms: _180  and  _183
REMARK   70  A    between atoms: _183  and  _184
REMARK   71  A    between atoms: _186  and  _188
REMARK   72  A    between atoms: _188  and  _189
REMARK   73  A    between atoms: _188  and  _191
REMARK   74  A    between atoms: _191  and  _192
REMARK   75  A    between atoms: _192  and  _193
REMARK   76  A    between atoms: _196  and  _198
REMARK   77  A    between atoms: _198  and  _199
REMARK   78  A    between atoms: _198  and  _201
REMARK   79  A    between atoms: _201  and  _202
REMARK   80  A    between atoms: _202  and  _352
REMARK   81  A    between atoms: _203  and  _205
REMARK   82  A    between atoms: _205  and  _206
REMARK   83  A    between atoms: _205  and  _208
REMARK   84  A    between atoms: _208  and  _209
REMARK   85  A    between atoms: _209  and  _210
REMARK   86  A    between atoms: _210  and  _211
REMARK   87  A    between atoms: _220  and  _222
REMARK   88  A    between atoms: _222  and  _223
REMARK   89  A    between atoms: _222  and  _225
REMARK   90  A    between atoms: _225  and  _226
REMARK   91  A    between atoms: _226  and  _227
REMARK   92  A    between atoms: _230  and  _232
REMARK   93  A    between atoms: _232  and  _233
REMARK   94  A    between atoms: _232  and  _235
REMARK   95  A    between atoms: _235  and  _236
REMARK   96  A    between atoms: _236  and  _237
REMARK   97  A    between atoms: _237  and  _238
REMARK   98  A    between atoms: _247  and  _249
REMARK   99  A    between atoms: _249  and  _250
REMARK  100  A    between atoms: _249  and  _252
REMARK  101  A    between atoms: _252  and  _253
REMARK  102  A    between atoms: _255  and  _257
REMARK  103  A    between atoms: _257  and  _258
REMARK  104  A    between atoms: _257  and  _260
REMARK  105  A    between atoms: _260  and  _261
REMARK  106  A    between atoms: _266  and  _267
REMARK  107  A    between atoms: _269  and  _271
REMARK  108  A    between atoms: _271  and  _272
REMARK  109  A    between atoms: _271  and  _274
REMARK  110  A    between atoms: _274  and  _275
REMARK  111  A    between atoms: _280  and  _282
REMARK  112  A    between atoms: _282  and  _283
REMARK  113  A    between atoms: _282  and  _285
REMARK  114  A    between atoms: _288  and  _290
REMARK  115  A    between atoms: _290  and  _291
REMARK  116  A    between atoms: _290  and  _293
REMARK  117  A    between atoms: _293  and  _294
REMARK  118  A    between atoms: _294  and  _295
REMARK  119  A    between atoms: _295  and  _296
REMARK  120  A    between atoms: _305  and  _307
REMARK  121  A    between atoms: _307  and  _308
REMARK  122  A    between atoms: _307  and  _310
REMARK  123  A    between atoms: _310  and  _311
REMARK  124  A    between atoms: _316  and  _318
REMARK  125  A    between atoms: _318  and  _319
REMARK  126  A    between atoms: _318  and  _321
REMARK  127  A    between atoms: _321  and  _322
REMARK  128  A    between atoms: _325  and  _327
REMARK  129  A    between atoms: _327  and  _328
REMARK  130  A    between atoms: _330  and  _332
REMARK  131  A    between atoms: _332  and  _333
REMARK  132  A    between atoms: _332  and  _335
REMARK  133  A    between atoms: _335  and  _336
REMARK  134  A    between atoms: _346  and  _348
REMARK  135  A    between atoms: _348  and  _349
REMARK  136  A    between atoms: _348  and  _351
REMARK  137  A    between atoms: _351  and  _352
REMARK  138  A    between atoms: _353  and  _355
REMARK  139  A    between atoms: _355  and  _356
REMARK  140  A    between atoms: _355  and  _358
REMARK  141  A    between atoms: _358  and  _359
REMARK  142  A    between atoms: _362  and  _364
REMARK  143  A    between atoms: _364  and  _365
REMARK  144  A    between atoms: _367  and  _369
REMARK  145  A    between atoms: _369  and  _370
REMARK  146  A    between atoms: _369  and  _372
REMARK  147  A    between atoms: _372  and  _373
REMARK  148  A    between atoms: _378  and  _379
REMARK  149  A    between atoms: _381  and  _383
REMARK  150  A    between atoms: _383  and  _384
REMARK  151  A    between atoms: _383  and  _386
REMARK  152  A    between atoms: _386  and  _387
REMARK  153  A    between atoms: _387  and  _388
REMARK  154  A    between atoms: _388  and  _389
REMARK  155  A    between atoms: _398  and  _400
REMARK  156  A    between atoms: _400  and  _401
REMARK  157  A    between atoms: _400  and  _403
REMARK  158  A    between atoms: _403  and  _404
REMARK  159  A    between atoms: _407  and  _409
REMARK  160  A    between atoms: _409  and  _410
REMARK  161  A    between atoms: _409  and  _412
REMARK  162  A    between atoms: _412  and  _413
REMARK  163  A    between atoms: _413  and  _414
REMARK  164  A    between atoms: _414  and  _415
REMARK  165  A    between atoms: _415  and  _416
REMARK  166  A    between atoms: _420  and  _422
REMARK  167  A    between atoms: _422  and  _423
REMARK  168  A    between atoms: _425  and  _427
REMARK  169  A    between atoms: _427  and  _428
REMARK  170  A    between atoms: _431  and  _433
REMARK  171  A    between atoms: _433  and  _434
REMARK  172  A    between atoms: _433  and  _436
REMARK  173  A    between atoms: _436  and  _437
REMARK  174  A    between atoms: _442  and  _444
REMARK  175  A    between atoms: _444  and  _445
REMARK  176  A    between atoms: _448  and  _450
REMARK  177  A    between atoms: _450  and  _451
REMARK  178  A    between atoms: _454  and  _455
REMARK  179  A    between atoms: _460  and  _462
REMARK  180  A    between atoms: _462  and  _463
REMARK  181  A    between atoms: _462  and  _465
REMARK  182  A    between atoms: _465  and  _466
REMARK  183  A    between atoms: _469  and  _471
REMARK  184  A    between atoms: _471  and  _472
REMARK  185  A    between atoms: _471  and  _474
REMARK  186  A    between atoms: _474  and  _475
REMARK  187  A    between atoms: _485  and  _487
REMARK  188  A    between atoms: _487  and  _488
REMARK  189  A    between atoms: _487  and  _490
REMARK  190  A    between atoms: _490  and  _491
REMARK  191  A    between atoms: _497  and  _498
REMARK  192  A    between atoms: _503  and  _505
REMARK  193  A    between atoms: _505  and  _506
REMARK  194  A    between atoms: _505  and  _508
REMARK  195  A    between atoms: _508  and  _509
REMARK  196  A    between atoms: _514  and  _516
REMARK  197  A    between atoms: _516  and  _517
REMARK  198  A    between atoms: _516  and  _519
REMARK  199  A    between atoms: _522  and  _524
REMARK  200  A    between atoms: _524  and  _525
REMARK  201  A    between atoms: _524  and  _527
REMARK  202  A    between atoms: _527  and  _528
REMARK  203  A    between atoms: _528  and  _529
REMARK  204  A    between atoms: _535  and  _536
REMARK  205  A    between atoms: _541  and  _543
REMARK  206  A    between atoms: _543  and  _544
REMARK  207  A    between atoms: _543  and  _546
REMARK  208  A    between atoms: _546  and  _547
REMARK  209  A    between atoms: _550  and  _552
REMARK  210  A    between atoms: _552  and  _553
REMARK  211  A    between atoms: _552  and  _555
REMARK  212  A    between atoms: _555  and  _556
REMARK  213  A    between atoms: _558  and  _560
REMARK  214  A    between atoms: _560  and  _561
REMARK  215  A    between atoms: _560  and  _563
REMARK  216  A    between atoms: _563  and  _564
REMARK  217  A    between atoms: _569  and  _570
REMARK  218  A    between atoms: _572  and  _574
REMARK  219  A    between atoms: _574  and  _575
REMARK  220  A    between atoms: _574  and  _577
REMARK  221  A    between atoms: _577  and  _578
REMARK  222  A    between atoms: _588  and  _590
REMARK  223  A    between atoms: _590  and  _591
REMARK  224  A    between atoms: _593  and  _595
REMARK  225  A    between atoms: _595  and  _596
REMARK  226  A    between atoms: _599  and  _601
REMARK  227  A    between atoms: _601  and  _602
REMARK  228  A    between atoms: _601  and  _604
REMARK  229  A    between atoms: _604  and  _605
REMARK  230  A    between atoms: _610  and  _612
REMARK  231  A    between atoms: _612  and  _613
REMARK  232  A    between atoms: _616  and  _618
REMARK  233  A    between atoms: _618  and  _619
REMARK  234  A    between atoms: _622  and  _623
REMARK  235  A    between atoms: _628  and  _630
REMARK  236  A    between atoms: _630  and  _631
REMARK  237  A    between atoms: _630  and  _633
REMARK  238  A    between atoms: _633  and  _634
REMARK  239  A    between atoms: _637  and  _639
REMARK  240  A    between atoms: _639  and  _640
REMARK  241  A    between atoms: _639  and  _642
REMARK  242  A    between atoms: _642  and  _643
REMARK  243  A    between atoms: _653  and  _655
REMARK  244  A    between atoms: _655  and  _656
REMARK  245  A    between atoms: _655  and  _658
REMARK  246  A    between atoms: _658  and  _659
REMARK  247  A    between atoms: _664  and  _666
REMARK  248  A    between atoms: _666  and  _667
REMARK  249  A    between atoms: _666  and  _669
REMARK  250  A    between atoms: _669  and  _670
REMARK  251  A    between atoms: _673  and  _675
REMARK  252  A    between atoms: _675  and  _676
REMARK  253  A    between atoms: _675  and  _678
REMARK  254  A    between atoms: _678  and  _679
REMARK  255  A    between atoms: _679  and  _680
REMARK  256  A    between atoms: _683  and  _685
REMARK  257  A    between atoms: _685  and  _686
REMARK  258  A    between atoms: _685  and  _688
REMARK  259  A    between atoms: _688  and  _689
REMARK  260  A    between atoms: _689  and  _690
REMARK  261  A    between atoms: _690  and  _691
REMARK  262  A    between atoms: _691  and  _692
REMARK  263  A    between atoms: _696  and  _698
REMARK  264  A    between atoms: _698  and  _699
REMARK  265  A    between atoms: _698  and  _701
REMARK  266  A    between atoms: _701  and  _702
REMARK  267  A    between atoms: _707  and  _709
REMARK  268  A    between atoms: _709  and  _710
REMARK  269  A    between atoms: _709  and  _712
REMARK  270  A    between atoms: _712  and  _713
REMARK  271  A    between atoms: _713  and  _714
REMARK  272  A    between atoms: _714  and  _715
REMARK  273  A    between atoms: _724  and  _726
REMARK  274  A    between atoms: _726  and  _727
REMARK  275  A    between atoms: _726  and  _729
REMARK  276  A    between atoms: _729  and  _730
REMARK  277  A    between atoms: _733  and  _735
REMARK  278  A    between atoms: _735  and  _736
REMARK  279  A    between atoms: _735  and  _738
REMARK  280  A    between atoms: _741  and  _743
REMARK  281  A    between atoms: _743  and  _744
REMARK  282  A    between atoms: _743  and  _746
REMARK  283  A    between atoms: _746  and  _747
REMARK  284  A    between atoms: _747  and  _748
REMARK  285  A    between atoms: _754  and  _755
REMARK  286  A    between atoms: _760  and  _762
REMARK  287  A    between atoms: _762  and  _763
REMARK  288  A    between atoms: _762  and  _765
REMARK  289  A    between atoms: _765  and  _766
REMARK  290  A    between atoms: _769  and  _771
REMARK  291  A    between atoms: _771  and  _772
REMARK  292  A    between atoms: _771  and  _774
REMARK  293  A    between atoms: _774  and  _775
REMARK  294  A    between atoms: _775  and  _776
REMARK  295  A    between atoms: _776  and  _777
REMARK  296  A    between atoms: _786  and  _788
REMARK  297  A    between atoms: _788  and  _789
REMARK                            x       y       z     vdW  Elec       q    Type
REMARK                         _______ _______ _______ _____ _____    ______ ____
ROOT
ATOM      1  CB  HIS A   1      16.391  22.096  -7.408  0.00  0.00    +0.072 C 
ENDROOT
BRANCH   1   2
ATOM      2  CG  HIS A   1      16.044  22.273  -8.851  0.00  0.00    +0.082 A 
ATOM      3  ND1 HIS A   1      14.816  21.920  -9.369  0.00  0.00    -0.227 NA
ATOM      4  CE1 HIS A   1      14.790  22.201 -10.658  0.00  0.00    +0.199 A 
ATOM      5  NE2 HIS A   1      15.957  22.722 -10.996  0.00  0.00    -0.221 NA
ATOM      6  CD2 HIS A   1      16.760  22.775  -9.886  0.00  0.00    +0.115 A 
ENDBRANCH   1   2
BRANCH   1   7
ATOM      7  CA  HIS A   1      17.713  22.743  -7.004  0.00  0.00    +0.139 C 
BRANCH   7   8
ATOM      8  N   HIS A   1      18.104  22.295  -5.666  0.00  0.00    -0.239 NA
ATOM      9  H   HIS A   1      17.501  21.616  -5.160  0.00  0.00    +0.142 HD
ENDBRANCH   7   8
BRANCH   7  10
ATOM     10  C   HIS A   1      17.580  24.268  -7.030  0.00  0.00    +0.224 C 
ATOM     11  O   HIS A   1      18.048  24.909  -7.961  0.00  0.00    -0.287 OA
ENDBRANCH   7  10
ENDBRANCH   1   7
TORSDOF 4
REMARK  Name = ../refined-set-2016/3o4k/3o4k_pocket.pdb
REMARK  297 active torsions:
REMARK  status: ('A' for Active; 'I' for Inactive)
REMARK    1  A    between atoms: _1  and  _3
REMARK    2  A    between atoms: _3  and  _4
REMARK    3  A    between atoms: _3  and  _6
REMARK    4  A    between atoms: _6  and  _7
REMARK    5  A    between atoms: _7  and  _8
REMARK    6  A    between atoms: _8  and  _9
REMARK    7  A    between atoms: _18  and  _20
REMARK    8  A    between atoms: _20  and  _21
REMARK    9  A    between atoms: _20  and  _23
REMARK   10  A    between atoms: _23  and  _24
REMARK   11  A    between atoms: _29  and  _30
REMARK   12  A    between atoms: _32  and  _34
REMARK   13  A    between atoms: _34  and  _35
REMARK   14  A    between atoms: _34  and  _37
REMARK   15  A    between atoms: _37  and  _38
REMARK   16  A    between atoms: _48  and  _50
REMARK   17  A    between atoms: _50  and  _51
REMARK   18  A    between atoms: _50  and  _53
REMARK   19  A    between atoms: _53  and  _54
REMARK   20  A    between atoms: _54  and  _55
REMARK   21  A    between atoms: _55  and  _56
REMARK   22  A    between atoms: _65  and  _67
REMARK   23  A    between atoms: _67  and  _68
REMARK   24  A    between atoms: _67  and  _70
REMARK   25  A    between atoms: _70  and  _71
REMARK   26  A    between atoms: _73  and  _75
REMARK   27  A    between atoms: _75  and  _76
REMARK   28  A    between atoms: _75  and  _78
REMARK   29  A    between atoms: _78  and  _79
REMARK   30  A    between atoms: _84  and  _86
REMARK   31  A    between atoms: _86  and  _87
REMARK   32  A    between atoms: _86  and  _89
REMARK   33  A    between atoms: _89  and  _90
REMARK   34  A    between atoms: _95  and  _96
REMARK   35  A    between atoms: _98  and  _100
REMARK   36  A    between atoms: _100  and  _101
REMARK   37  A    between atoms: _100  and  _103
REMARK   38  A    between atoms: _103  and  _104
REMARK   39  A    between atoms: _104  and  _105
REMARK   40  A    between atoms: _108  and  _110
REMARK   41  A    between atoms: _110  and  _111
REMARK   42  A    between atoms: _110  and  _113
REMARK   43  A    between atoms: _116  and  _118
REMARK   44  A    between atoms: _118  and  _119
REMARK   45  A    between atoms: _118  and  _121
REMARK   46  A    between atoms: _121  and  _122
REMARK   47  A    between atoms: _122  and  _123
REMARK   48  A    between atoms: _123  and  _124
REMARK   49  A    between atoms: _124  and  _125
REMARK   50  A    between atoms: _129  and  _131
REMARK   51  A    between atoms: _131  and  _132
REMARK   52  A    between atoms: _131  and  _134
REMARK   53  A    between atoms: _134  and  _135
REMARK   54  A    between atoms: _140  and  _142
REMARK   55  A    between atoms: _142  and  _143
REMARK   56  A    between atoms: _142  and  _145
REMARK   57  A    between atoms: _145  and  _146
REMARK   58  A    between atoms: _151  and  _152
REMARK   59  A    between atoms: _154  and  _156
REMARK   60  A    between atoms: _156  and  _157
REMARK   61  A    between atoms: _156  and  _159
REMARK   62  A    between atoms: _159  and  _160
REMARK   63  A    between atoms: _160  and  _161
REMARK   64  A    between atoms: _161  and  _162
REMARK   65  A    between atoms: _171  and  _173
REMARK   66  A    between atoms: _173  and  _174
REMARK   67  A    between atoms: _178  and  _180
REMARK   68  A    between atoms: _180  and  _181
REMARK   69  A    between atoms: _180  and  _183
REMARK   70  A    between atoms: _183  and  _184
REMARK   71  A    between atoms: _186  and  _188
REMARK   72  A    between atoms: _188  and  _189
REMARK   73  A    between atoms: _188  and  _191
REMARK   74  A    between atoms: _191  and  _192
REMARK   75  A    between atoms: _192  and  _193
REMARK   76  A    between atoms: _196  and  _198
REMARK   77  A    between atoms: _198  and  _199
REMARK   78  A    between atoms: _198  and  _201
REMARK   79  A    between atoms: _201  and  _202
REMARK   80  A    between atoms: _202  and  _352
REMARK   81  A    between atoms: _203  and  _205
REMARK   82  A    between atoms: _205  and  _206
REMARK   83  A    between atoms: _205  and  _208
REMARK   84  A    between atoms: _208  and  _209
REMARK   85  A    between atoms: _209  and  _210
REMARK   86  A    between atoms: _210  and  _211
REMARK   87  A    between atoms: _220  and  _222
REMARK   88  A    between atoms: _222  and  _223
REMARK   89  A    between atoms: _222  and  _225
REMARK   90  A    between atoms: _225  and  _226
REMARK   91  A    between atoms: _226  and  _227
REMARK   92  A    between atoms: _230  and  _232
REMARK   93  A    between atoms: _232  and  _233
REMARK   94  A    between atoms: _232  and  _235
REMARK   95  A    between atoms: _235  and  _236
REMARK   96  A    between atoms: _236  and  _237
REMARK   97  A    between atoms: _237  and  _238
REMARK   98  A    between atoms: _247  and  _249
REMARK   99  A    between atoms: _249  and  _250
REMARK  100  A    between atoms: _249  and  _252
REMARK  101  A    between atoms: _252  and  _253
REMARK  102  A    between atoms: _255  and  _257
REMARK  103  A    between atoms: _257  and  _258
REMARK  104  A    between atoms: _257  and  _260
REMARK  105  A    between atoms: _260  and  _261
REMARK  106  A    between atoms: _266  and  _267
REMARK  107  A    between atoms: _269  and  _271
REMARK  108  A    between atoms: _271  and  _272
REMARK  109  A    between atoms: _271  and  _274
REMARK  110  A    between atoms: _274  and  _275
REMARK  111  A    between atoms: _280  and  _282
REMARK  112  A    between atoms: _282  and  _283
REMARK  113  A    between atoms: _282  and  _285
REMARK  114  A    between atoms: _288  and  _290
REMARK  115  A    between atoms: _290  and  _291
REMARK  116  A    between atoms: _290  and  _293
REMARK  117  A    between atoms: _293  and  _294
REMARK  118  A    between atoms: _294  and  _295
REMARK  119  A    between atoms: _295  and  _296
REMARK  120  A    between atoms: _305  and  _307
REMARK  121  A    between atoms: _307  and  _308
REMARK  122  A    between atoms: _307  and  _310
REMARK  123  A    between atoms: _310  and  _311
REMARK  124  A    between atoms: _316  and  _318
REMARK  125  A    between atoms: _318  and  _319
REMARK  126  A    between atoms: _318  and  _321
REMARK  127  A    between atoms: _321  and  _322
REMARK  128  A    between atoms: _325  and  _327
REMARK  129  A    between atoms: _327  and  _328
REMARK  130  A    between atoms: _330  and  _332
REMARK  131  A    between atoms: _332  and  _333
REMARK  132  A    between atoms: _332  and  _335
REMARK  133  A    between atoms: _335  and  _336
REMARK  134  A    between atoms: _346  and  _348
REMARK  135  A    between atoms: _348  and  _349
REMARK  136  A    between atoms: _348  and  _351
REMARK  137  A    between atoms: _351  and  _352
REMARK  138  A    between atoms: _353  and  _355
REMARK  139  A    between atoms: _355  and  _356
REMARK  140  A    between atoms: _355  and  _358
REMARK  141  A    between atoms: _358  and  _359
REMARK  142  A    between atoms: _362  and  _364
REMARK  143  A    between atoms: _364  and  _365
REMARK  144  A    between atoms: _367  and  _369
REMARK  145  A    between atoms: _369  and  _370
REMARK  146  A    between atoms: _369  and  _372
REMARK  147  A    between atoms: _372  and  _373
REMARK  148  A    between atoms: _378  and  _379
REMARK  149  A    between atoms: _381  and  _383
REMARK  150  A    between atoms: _383  and  _384
REMARK  151  A    between atoms: _383  and  _386
REMARK  152  A    between atoms: _386  and  _387
REMARK  153  A    between atoms: _387  and  _388
REMARK  154  A    between atoms: _388  and  _389
REMARK  155  A    between atoms: _398  and  _400
REMARK  156  A    between atoms: _400  and  _401
REMARK  157  A    between atoms: _400  and  _403
REMARK  158  A    between atoms: _403  and  _404
REMARK  159  A    between atoms: _407  and  _409
REMARK  160  A    between atoms: _409  and  _410
REMARK  161  A    between atoms: _409  and  _412
REMARK  162  A    between atoms: _412  and  _413
REMARK  163  A    between atoms: _413  and  _414
REMARK  164  A    between atoms: _414  and  _415
REMARK  165  A    between atoms: _415  and  _416
REMARK  166  A    between atoms: _420  and  _422
REMARK  167  A    between atoms: _422  and  _423
REMARK  168  A    between atoms: _425  and  _427
REMARK  169  A    between atoms: _427  and  _428
REMARK  170  A    between atoms: _431  and  _433
REMARK  171  A    between atoms: _433  and  _434
REMARK  172  A    between atoms: _433  and  _436
REMARK  173  A    between atoms: _436  and  _437
REMARK  174  A    between atoms: _442  and  _444
REMARK  175  A    between atoms: _444  and  _445
REMARK  176  A    between atoms: _448  and  _450
REMARK  177  A    between atoms: _450  and  _451
REMARK  178  A    between atoms: _454  and  _455
REMARK  179  A    between atoms: _460  and  _462
REMARK  180  A    between atoms: _462  and  _463
REMARK  181  A    between atoms: _462  and  _465
REMARK  182  A    between atoms: _465  and  _466
REMARK  183  A    between atoms: _469  and  _471
REMARK  184  A    between atoms: _471  and  _472
REMARK  185  A    between atoms: _471  and  _474
REMARK  186  A    between atoms: _474  and  _475
REMARK  187  A    between atoms: _485  and  _487
REMARK  188  A    between atoms: _487  and  _488
REMARK  189  A    between atoms: _487  and  _490
REMARK  190  A    between atoms: _490  and  _491
REMARK  191  A    between atoms: _497  and  _498
REMARK  192  A    between atoms: _503  and  _505
REMARK  193  A    between atoms: _505  and  _506
REMARK  194  A    between atoms: _505  and  _508
REMARK  195  A    between atoms: _508  and  _509
REMARK  196  A    between atoms: _514  and  _516
REMARK  197  A    between atoms: _516  and  _517
REMARK  198  A    between atoms: _516  and  _519
REMARK  199  A    between atoms: _522  and  _524
REMARK  200  A    between atoms: _524  and  _525
REMARK  201  A    between atoms: _524  and  _527
REMARK  202  A    between atoms: _527  and  _528
REMARK  203  A    between atoms: _528  and  _529
REMARK  204  A    between atoms: _535  and  _536
REMARK  205  A    between atoms: _541  and  _543
REMARK  206  A    between atoms: _543  and  _544
REMARK  207  A    between atoms: _543  and  _546
REMARK  208  A    between atoms: _546  and  _547
REMARK  209  A    between atoms: _550  and  _552
REMARK  210  A    between atoms: _552  and  _553
REMARK  211  A    between atoms: _552  and  _555
REMARK  212  A    between atoms: _555  and  _556
REMARK  213  A    between atoms: _558  and  _560
REMARK  214  A    between atoms: _560  and  _561
REMARK  215  A    between atoms: _560  and  _563
REMARK  216  A    between atoms: _563  and  _564
REMARK  217  A    between atoms: _569  and  _570
REMARK  218  A    between atoms: _572  and  _574
REMARK  219  A    between atoms: _574  and  _575
REMARK  220  A    between atoms: _574  and  _577
REMARK  221  A    between atoms: _577  and  _578
REMARK  222  A    between atoms: _588  and  _590
REMARK  223  A    between atoms: _590  and  _591
REMARK  224  A    between atoms: _593  and  _595
REMARK  225  A    between atoms: _595  and  _596
REMARK  226  A    between atoms: _599  and  _601
REMARK  227  A    between atoms: _601  and  _602
REMARK  228  A    between atoms: _601  and  _604
REMARK  229  A    between atoms: _604  and  _605
REMARK  230  A    between atoms: _610  and  _612
REMARK  231  A    between atoms: _612  and  _613
REMARK  232  A    between atoms: _616  and  _618
REMARK  233  A    between atoms: _618  and  _619
REMARK  234  A    between atoms: _622  and  _623
REMARK  235  A    between atoms: _628  and  _630
REMARK  236  A    between atoms: _630  and  _631
REMARK  237  A    between atoms: _630  and  _633
REMARK  238  A    between atoms: _633  and  _634
REMARK  239  A    between atoms: _637  and  _639
REMARK  240  A    between atoms: _639  and  _640
REMARK  241  A    between atoms: _639  and  _642
REMARK  242  A    between atoms: _642  and  _643
REMARK  243  A    between atoms: _653  and  _655
REMARK  244  A    between atoms: _655  and  _656
REMARK  245  A    between atoms: _655  and  _658
REMARK  246  A    between atoms: _658  and  _659
REMARK  247  A    between atoms: _664  and  _666
REMARK  248  A    between atoms: _666  and  _667
REMARK  249  A    between atoms: _666  and  _669
REMARK  250  A    between atoms: _669  and  _670
REMARK  251  A    between atoms: _673  and  _675
REMARK  252  A    between atoms: _675  and  _676
REMARK  253  A    between atoms: _675  and  _678
REMARK  254  A    between atoms: _678  and  _679
REMARK  255  A    between atoms: _679  and  _680
REMARK  256  A    between atoms: _683  and  _685
REMARK  257  A    between atoms: _685  and  _686
REMARK  258  A    between atoms: _685  and  _688
REMARK  259  A    between atoms: _688  and  _689
REMARK  260  A    between atoms: _689  and  _690
REMARK  261  A    between atoms: _690  and  _691
REMARK  262  A    between atoms: _691  and  _692
REMARK  263  A    between atoms: _696  and  _698
REMARK  264  A    between atoms: _698  and  _699
REMARK  265  A    between atoms: _698  and  _701
REMARK  266  A    between atoms: _701  and  _702
REMARK  267  A    between atoms: _707  and  _709
REMARK  268  A    between atoms: _709  and  _710
REMARK  269  A    between atoms: _709  and  _712
REMARK  270  A    between atoms: _712  and  _713
REMARK  271  A    between atoms: _713  and  _714
REMARK  272  A    between atoms: _714  and  _715
REMARK  273  A    between atoms: _724  and  _726
REMARK  274  A    between atoms: _726  and  _727
REMARK  275  A    between atoms: _726  and  _729
REMARK  276  A    between atoms: _729  and  _730
REMARK  277  A    between atoms: _733  and  _735
REMARK  278  A    between atoms: _735  and  _736
REMARK  279  A    between atoms: _735  and  _738
REMARK  280  A    between atoms: _741  and  _743
REMARK  281  A    between atoms: _743  and  _744
REMARK  282  A    between atoms: _743  and  _746
REMARK  283  A    between atoms: _746  and  _747
REMARK  284  A    between atoms: _747  and  _748
REMARK  285  A    between atoms: _754  and  _755
REMARK  286  A    between atoms: _760  and  _762
REMARK  287  A    between atoms: _762  and  _763
REMARK  288  A    between atoms: _762  and  _765
REMARK  289  A    between atoms: _765  and  _766
REMARK  290  A    between atoms: _769  and  _771
REMARK  291  A    between atoms: _771  and  _772
REMARK  292  A    between atoms: _771  and  _774
REMARK  293  A    between atoms: _774  and  _775
REMARK  294  A    between atoms: _775  and  _776
REMARK  295  A    between atoms: _776  and  _777
REMARK  296  A    between atoms: _786  and  _788
REMARK  297  A    between atoms: _788  and  _789
REMARK                            x       y       z     vdW  Elec       q    Type
REMARK                         _______ _______ _______ _____ _____    ______ ____
ROOT
ATOM      1  CA  GLN A   2      17.904  27.478 -10.812  0.00  0.00    +0.149 C 
ENDROOT
BRANCH   1   2
ATOM      2  C   GLN A   2      16.840  28.136  -9.983  0.00  0.00    +0.244 C 
ATOM      3  O   GLN A   2      16.649  27.790  -8.815  0.00  0.00    -0.273 OA
ATOM      4  N   PRO A   3      16.115  29.087 -10.582  0.00  0.00    -0.272 N 
ATOM      5  CA  PRO A   3      15.051  29.762  -9.847  0.00  0.00    +0.152 C 
ATOM      6  CB  PRO A   3      14.791  31.013 -10.690  0.00  0.00    +0.031 C 
ATOM      7  CG  PRO A   3      15.014  30.495 -12.080  0.00  0.00    +0.024 C 
ATOM      8  CD  PRO A   3      16.274  29.658 -11.933  0.00  0.00    +0.094 C 
BRANCH   5   9
ATOM      9  C   PRO A   3      13.839  28.838  -9.755  0.00  0.00    +0.241 C 
ATOM     10  N   THR A   4      13.541  28.384  -8.544  0.00  0.00    -0.296 N 
ATOM     11  H   THR A   4      14.120  28.675  -7.731  0.00  0.00    +0.150 HD
ATOM     12  O   PRO A   3      13.183  28.544 -10.764  0.00  0.00    -0.273 OA
BRANCH  10  13
ATOM     13  CA  THR A   4      12.416  27.486  -8.339  0.00  0.00    +0.164 C 
BRANCH  13  14
ATOM     14  C   THR A   4      12.257  27.244  -6.854  0.00  0.00    +0.229 C 
ATOM     15  O   THR A   4      13.176  27.515  -6.080  0.00  0.00    -0.286 OA
ENDBRANCH  13  14
BRANCH  13  16
ATOM     16  CB  THR A   4      12.663  26.117  -9.028  0.00  0.00    +0.136 C 
ATOM     17  CG2 THR A   4      13.922  25.493  -8.492  0.00  0.00    +0.034 C 
BRANCH  16  18
ATOM     18  OG1 THR A   4      11.561  25.237  -8.776  0.00  0.00    -0.382 OA
ATOM     19  HG1 THR A   4      11.727  24.367  -9.219  0.00  0.00    +0.210 HD
ENDBRANCH  16  18
ENDBRANCH  13  16
ENDBRANCH  10  13
ENDBRANCH   5   9
ENDBRANCH   1   2
BRANCH   1  21
ATOM     20  C   VAL A   1      20.233  27.012 -10.331  0.00  0.00    +0.238 C 
ATOM     21  N   GLN A   2      18.973  27.060  -9.926  0.00  0.00    -0.297 N 
ATOM     22  H   GLN A   2      18.744  26.791  -8.948  0.00  0.00    +0.150 HD
ATOM     23  O   VAL A   1      20.582  27.292 -11.471  0.00  0.00    -0.274 OA
BRANCH  20  24
ATOM     24  CA  VAL A   1      21.247  26.571  -9.297  0.00  0.00    +0.145 C 
BRANCH  24  25
ATOM     25  CB  VAL A   1      21.833  25.218  -9.754  0.00  0.00    +0.025 C 
ATOM     26  CG2 VAL A   1      22.962  24.817  -8.836  0.00  0.00    +0.002 C 
ATOM     27  CG1 VAL A   1      20.754  24.152  -9.759  0.00  0.00    +0.002 C 
ENDBRANCH  24  25
BRANCH  24  28
ATOM     28  N   VAL A   1      20.672  26.497  -7.954  0.00  0.00    -0.238 NA
ATOM     29  H   VAL A   1      19.845  25.890  -7.782  0.00  0.00    +0.142 HD
ENDBRANCH  24  28
ENDBRANCH  20  24
ENDBRANCH   1  21
BRANCH   1  30
ATOM     30  CB  GLN A   2      17.235  26.290 -11.511  0.00  0.00    +0.039 C 
BRANCH  30  31
ATOM     31  CG  GLN A   2      18.114  25.457 -12.390  0.00  0.00    +0.087 C 
BRANCH  31  32
ATOM     32  CD  GLN A   2      17.339  24.908 -13.577  0.00  0.00    +0.219 C 
ATOM     33  OE1 GLN A   2      16.490  24.020 -13.441  0.00  0.00    -0.275 OA
ATOM     34  NE2 GLN A   2      17.613  25.453 -14.745  0.00  0.00    -0.329 N 
ATOM     35 HE21 GLN A   2      18.335  26.198 -14.815  0.00  0.00    +0.145 HD
ATOM     36 HE22 GLN A   2      17.107  25.138 -15.597  0.00  0.00    +0.145 HD
ENDBRANCH  31  32
ENDBRANCH  30  31
ENDBRANCH   1  30
TORSDOF 13
REMARK  Name = ../refined-set-2016/3o4k/3o4k_pocket.pdb
REMARK  297 active torsions:
REMARK  status: ('A' for Active; 'I' for Inactive)
REMARK    1  A    between atoms: _1  and  _3
REMARK    2  A    between atoms: _3  and  _4
REMARK    3  A    between atoms: _3  and  _6
REMARK    4  A    between atoms: _6  and  _7
REMARK    5  A    between atoms: _7  and  _8
REMARK    6  A    between atoms: _8  and  _9
REMARK    7  A    between atoms: _18  and  _20
REMARK    8  A    between atoms: _20  and  _21
REMARK    9  A    between atoms: _20  and  _23
REMARK   10  A    between atoms: _23  and  _24
REMARK   11  A    between atoms: _29  and  _30
REMARK   12  A    between atoms: _32  and  _34
REMARK   13  A    between atoms: _34  and  _35
REMARK   14  A    between atoms: _34  and  _37
REMARK   15  A    between atoms: _37  and  _38
REMARK   16  A    between atoms: _48  and  _50
REMARK   17  A    between atoms: _50  and  _51
REMARK   18  A    between atoms: _50  and  _53
REMARK   19  A    between atoms: _53  and  _54
REMARK   20  A    between atoms: _54  and  _55
REMARK   21  A    between atoms: _55  and  _56
REMARK   22  A    between atoms: _65  and  _67
REMARK   23  A    between atoms: _67  and  _68
REMARK   24  A    between atoms: _67  and  _70
REMARK   25  A    between atoms: _70  and  _71
REMARK   26  A    between atoms: _73  and  _75
REMARK   27  A    between atoms: _75  and  _76
REMARK   28  A    between atoms: _75  and  _78
REMARK   29  A    between atoms: _78  and  _79
REMARK   30  A    between atoms: _84  and  _86
REMARK   31  A    between atoms: _86  and  _87
REMARK   32  A    between atoms: _86  and  _89
REMARK   33  A    between atoms: _89  and  _90
REMARK   34  A    between atoms: _95  and  _96
REMARK   35  A    between atoms: _98  and  _100
REMARK   36  A    between atoms: _100  and  _101
REMARK   37  A    between atoms: _100  and  _103
REMARK   38  A    between atoms: _103  and  _104
REMARK   39  A    between atoms: _104  and  _105
REMARK   40  A    between atoms: _108  and  _110
REMARK   41  A    between atoms: _110  and  _111
REMARK   42  A    between atoms: _110  and  _113
REMARK   43  A    between atoms: _116  and  _118
REMARK   44  A    between atoms: _118  and  _119
REMARK   45  A    between atoms: _118  and  _121
REMARK   46  A    between atoms: _121  and  _122
REMARK   47  A    between atoms: _122  and  _123
REMARK   48  A    between atoms: _123  and  _124
REMARK   49  A    between atoms: _124  and  _125
REMARK   50  A    between atoms: _129  and  _131
REMARK   51  A    between atoms: _131  and  _132
REMARK   52  A    between atoms: _131  and  _134
REMARK   53  A    between atoms: _134  and  _135
REMARK   54  A    between atoms: _140  and  _142
REMARK   55  A    between atoms: _142  and  _143
REMARK   56  A    between atoms: _142  and  _145
REMARK   57  A    between atoms: _145  and  _146
REMARK   58  A    between atoms: _151  and  _152
REMARK   59  A    between atoms: _154  and  _156
REMARK   60  A    between atoms: _156  and  _157
REMARK   61  A    between atoms: _156  and  _159
REMARK   62  A    between atoms: _159  and  _160
REMARK   63  A    between atoms: _160  and  _161
REMARK   64  A    between atoms: _161  and  _162
REMARK   65  A    between atoms: _171  and  _173
REMARK   66  A    between atoms: _173  and  _174
REMARK   67  A    between atoms: _178  and  _180
REMARK   68  A    between atoms: _180  and  _181
REMARK   69  A    between atoms: _180  and  _183
REMARK   70  A    between atoms: _183  and  _184
REMARK   71  A    between atoms: _186  and  _188
REMARK   72  A    between atoms: _188  and  _189
REMARK   73  A    between atoms: _188  and  _191
REMARK   74  A    between atoms: _191  and  _192
REMARK   75  A    between atoms: _192  and  _193
REMARK   76  A    between atoms: _196  and  _198
REMARK   77  A    between atoms: _198  and  _199
REMARK   78  A    between atoms: _198  and  _201
REMARK   79  A    between atoms: _201  and  _202
REMARK   80  A    between atoms: _202  and  _352
REMARK   81  A    between atoms: _203  and  _205
REMARK   82  A    between atoms: _205  and  _206
REMARK   83  A    between atoms: _205  and  _208
REMARK   84  A    between atoms: _208  and  _209
REMARK   85  A    between atoms: _209  and  _210
REMARK   86  A    between atoms: _210  and  _211
REMARK   87  A    between atoms: _220  and  _222
REMARK   88  A    between atoms: _222  and  _223
REMARK   89  A    between atoms: _222  and  _225
REMARK   90  A    between atoms: _225  and  _226
REMARK   91  A    between atoms: _226  and  _227
REMARK   92  A    between atoms: _230  and  _232
REMARK   93  A    between atoms: _232  and  _233
REMARK   94  A    between atoms: _232  and  _235
REMARK   95  A    between atoms: _235  and  _236
REMARK   96  A    between atoms: _236  and  _237
REMARK   97  A    between atoms: _237  and  _238
REMARK   98  A    between atoms: _247  and  _249
REMARK   99  A    between atoms: _249  and  _250
REMARK  100  A    between atoms: _249  and  _252
REMARK  101  A    between atoms: _252  and  _253
REMARK  102  A    between atoms: _255  and  _257
REMARK  103  A    between atoms: _257  and  _258
REMARK  104  A    between atoms: _257  and  _260
REMARK  105  A    between atoms: _260  and  _261
REMARK  106  A    between atoms: _266  and  _267
REMARK  107  A    between atoms: _269  and  _271
REMARK  108  A    between atoms: _271  and  _272
REMARK  109  A    between atoms: _271  and  _274
REMARK  110  A    between atoms: _274  and  _275
REMARK  111  A    between atoms: _280  and  _282
REMARK  112  A    between atoms: _282  and  _283
REMARK  113  A    between atoms: _282  and  _285
REMARK  114  A    between atoms: _288  and  _290
REMARK  115  A    between atoms: _290  and  _291
REMARK  116  A    between atoms: _290  and  _293
REMARK  117  A    between atoms: _293  and  _294
REMARK  118  A    between atoms: _294  and  _295
REMARK  119  A    between atoms: _295  and  _296
REMARK  120  A    between atoms: _305  and  _307
REMARK  121  A    between atoms: _307  and  _308
REMARK  122  A    between atoms: _307  and  _310
REMARK  123  A    between atoms: _310  and  _311
REMARK  124  A    between atoms: _316  and  _318
REMARK  125  A    between atoms: _318  and  _319
REMARK  126  A    between atoms: _318  and  _321
REMARK  127  A    between atoms: _321  and  _322
REMARK  128  A    between atoms: _325  and  _327
REMARK  129  A    between atoms: _327  and  _328
REMARK  130  A    between atoms: _330  and  _332
REMARK  131  A    between atoms: _332  and  _333
REMARK  132  A    between atoms: _332  and  _335
REMARK  133  A    between atoms: _335  and  _336
REMARK  134  A    between atoms: _346  and  _348
REMARK  135  A    between atoms: _348  and  _349
REMARK  136  A    between atoms: _348  and  _351
REMARK  137  A    between atoms: _351  and  _352
REMARK  138  A    between atoms: _353  and  _355
REMARK  139  A    between atoms: _355  and  _356
REMARK  140  A    between atoms: _355  and  _358
REMARK  141  A    between atoms: _358  and  _359
REMARK  142  A    between atoms: _362  and  _364
REMARK  143  A    between atoms: _364  and  _365
REMARK  144  A    between atoms: _367  and  _369
REMARK  145  A    between atoms: _369  and  _370
REMARK  146  A    between atoms: _369  and  _372
REMARK  147  A    between atoms: _372  and  _373
REMARK  148  A    between atoms: _378  and  _379
REMARK  149  A    between atoms: _381  and  _383
REMARK  150  A    between atoms: _383  and  _384
REMARK  151  A    between atoms: _383  and  _386
REMARK  152  A    between atoms: _386  and  _387
REMARK  153  A    between atoms: _387  and  _388
REMARK  154  A    between atoms: _388  and  _389
REMARK  155  A    between atoms: _398  and  _400
REMARK  156  A    between atoms: _400  and  _401
REMARK  157  A    between atoms: _400  and  _403
REMARK  158  A    between atoms: _403  and  _404
REMARK  159  A    between atoms: _407  and  _409
REMARK  160  A    between atoms: _409  and  _410
REMARK  161  A    between atoms: _409  and  _412
REMARK  162  A    between atoms: _412  and  _413
REMARK  163  A    between atoms: _413  and  _414
REMARK  164  A    between atoms: _414  and  _415
REMARK  165  A    between atoms: _415  and  _416
REMARK  166  A    between atoms: _420  and  _422
REMARK  167  A    between atoms: _422  and  _423
REMARK  168  A    between atoms: _425  and  _427
REMARK  169  A    between atoms: _427  and  _428
REMARK  170  A    between atoms: _431  and  _433
REMARK  171  A    between atoms: _433  and  _434
REMARK  172  A    between atoms: _433  and  _436
REMARK  173  A    between atoms: _436  and  _437
REMARK  174  A    between atoms: _442  and  _444
REMARK  175  A    between atoms: _444  and  _445
REMARK  176  A    between atoms: _448  and  _450
REMARK  177  A    between atoms: _450  and  _451
REMARK  178  A    between atoms: _454  and  _455
REMARK  179  A    between atoms: _460  and  _462
REMARK  180  A    between atoms: _462  and  _463
REMARK  181  A    between atoms: _462  and  _465
REMARK  182  A    between atoms: _465  and  _466
REMARK  183  A    between atoms: _469  and  _471
REMARK  184  A    between atoms: _471  and  _472
REMARK  185  A    between atoms: _471  and  _474
REMARK  186  A    between atoms: _474  and  _475
REMARK  187  A    between atoms: _485  and  _487
REMARK  188  A    between atoms: _487  and  _488
REMARK  189  A    between atoms: _487  and  _490
REMARK  190  A    between atoms: _490  and  _491
REMARK  191  A    between atoms: _497  and  _498
REMARK  192  A    between atoms: _503  and  _505
REMARK  193  A    between atoms: _505  and  _506
REMARK  194  A    between atoms: _505  and  _508
REMARK  195  A    between atoms: _508  and  _509
REMARK  196  A    between atoms: _514  and  _516
REMARK  197  A    between atoms: _516  and  _517
REMARK  198  A    between atoms: _516  and  _519
REMARK  199  A    between atoms: _522  and  _524
REMARK  200  A    between atoms: _524  and  _525
REMARK  201  A    between atoms: _524  and  _527
REMARK  202  A    between atoms: _527  and  _528
REMARK  203  A    between atoms: _528  and  _529
REMARK  204  A    between atoms: _535  and  _536
REMARK  205  A    between atoms: _541  and  _543
REMARK  206  A    between atoms: _543  and  _544
REMARK  207  A    between atoms: _543  and  _546
REMARK  208  A    between atoms: _546  and  _547
REMARK  209  A    between atoms: _550  and  _552
REMARK  210  A    between atoms: _552  and  _553
REMARK  211  A    between atoms: _552  and  _555
REMARK  212  A    between atoms: _555  and  _556
REMARK  213  A    between atoms: _558  and  _560
REMARK  214  A    between atoms: _560  and  _561
REMARK  215  A    between atoms: _560  and  _563
REMARK  216  A    between atoms: _563  and  _564
REMARK  217  A    between atoms: _569  and  _570
REMARK  218  A    between atoms: _572  and  _574
REMARK  219  A    between atoms: _574  and  _575
REMARK  220  A    between atoms: _574  and  _577
REMARK  221  A    between atoms: _577  and  _578
REMARK  222  A    between atoms: _588  and  _590
REMARK  223  A    between atoms: _590  and  _591
REMARK  224  A    between atoms: _593  and  _595
REMARK  225  A    between atoms: _595  and  _596
REMARK  226  A    between atoms: _599  and  _601
REMARK  227  A    between atoms: _601  and  _602
REMARK  228  A    between atoms: _601  and  _604
REMARK  229  A    between atoms: _604  and  _605
REMARK  230  A    between atoms: _610  and  _612
REMARK  231  A    between atoms: _612  and  _613
REMARK  232  A    between atoms: _616  and  _618
REMARK  233  A    between atoms: _618  and  _619
REMARK  234  A    between atoms: _622  and  _623
REMARK  235  A    between atoms: _628  and  _630
REMARK  236  A    between atoms: _630  and  _631
REMARK  237  A    between atoms: _630  and  _633
REMARK  238  A    between atoms: _633  and  _634
REMARK  239  A    between atoms: _637  and  _639
REMARK  240  A    between atoms: _639  and  _640
REMARK  241  A    between atoms: _639  and  _642
REMARK  242  A    between atoms: _642  and  _643
REMARK  243  A    between atoms: _653  and  _655
REMARK  244  A    between atoms: _655  and  _656
REMARK  245  A    between atoms: _655  and  _658
REMARK  246  A    between atoms: _658  and  _659
REMARK  247  A    between atoms: _664  and  _666
REMARK  248  A    between atoms: _666  and  _667
REMARK  249  A    between atoms: _666  and  _669
REMARK  250  A    between atoms: _669  and  _670
REMARK  251  A    between atoms: _673  and  _675
REMARK  252  A    between atoms: _675  and  _676
REMARK  253  A    between atoms: _675  and  _678
REMARK  254  A    between atoms: _678  and  _679
REMARK  255  A    between atoms: _679  and  _680
REMARK  256  A    between atoms: _683  and  _685
REMARK  257  A    between atoms: _685  and  _686
REMARK  258  A    between atoms: _685  and  _688
REMARK  259  A    between atoms: _688  and  _689
REMARK  260  A    between atoms: _689  and  _690
REMARK  261  A    between atoms: _690  and  _691
REMARK  262  A    between atoms: _691  and  _692
REMARK  263  A    between atoms: _696  and  _698
REMARK  264  A    between atoms: _698  and  _699
REMARK  265  A    between atoms: _698  and  _701
REMARK  266  A    between atoms: _701  and  _702
REMARK  267  A    between atoms: _707  and  _709
REMARK  268  A    between atoms: _709  and  _710
REMARK  269  A    between atoms: _709  and  _712
REMARK  270  A    between atoms: _712  and  _713
REMARK  271  A    between atoms: _713  and  _714
REMARK  272  A    between atoms: _714  and  _715
REMARK  273  A    between atoms: _724  and  _726
REMARK  274  A    between atoms: _726  and  _727
REMARK  275  A    between atoms: _726  and  _729
REMARK  276  A    between atoms: _729  and  _730
REMARK  277  A    between atoms: _733  and  _735
REMARK  278  A    between atoms: _735  and  _736
REMARK  279  A    between atoms: _735  and  _738
REMARK  280  A    between atoms: _741  and  _743
REMARK  281  A    between atoms: _743  and  _744
REMARK  282  A    between atoms: _743  and  _746
REMARK  283  A    between atoms: _746  and  _747
REMARK  284  A    between atoms: _747  and  _748
REMARK  285  A    between atoms: _754  and  _755
REMARK  286  A    between atoms: _760  and  _762
REMARK  287  A    between atoms: _762  and  _763
REMARK  288  A    between atoms: _762  and  _765
REMARK  289  A    between atoms: _765  and  _766
REMARK  290  A    between atoms: _769  and  _771
REMARK  291  A    between atoms: _771  and  _772
REMARK  292  A    between atoms: _771  and  _774
REMARK  293  A    between atoms: _774  and  _775
REMARK  294  A    between atoms: _775  and  _776
REMARK  295  A    between atoms: _776  and  _777
REMARK  296  A    between atoms: _786  and  _788
REMARK  297  A    between atoms: _788  and  _789
REMARK                            x       y       z     vdW  Elec       q    Type
REMARK                         _______ _______ _______ _____ _____    ______ ____
ROOT
ATOM      1  CA  SER A   1      12.238  22.925  -5.659  0.00  0.00    +0.163 C 
ENDROOT
BRANCH   1   2
ATOM      2  N   SER A   1      11.658  24.259  -5.796  0.00  0.00    -0.237 NA
ATOM      3  H   SER A   1      11.414  24.601  -6.747  0.00  0.00    +0.142 HD
ENDBRANCH   1   2
BRANCH   1   4
ATOM      4  CB  SER A   1      13.554  23.028  -4.892  0.00  0.00    +0.227 C 
ATOM      5  OG  SER A   1      14.352  23.949  -5.127  0.00  0.00    -0.287 OA
ENDBRANCH   1   4
BRANCH   1   6
ATOM      6  C   SER A   1      12.476  22.329  -7.043  0.00  0.00    +0.162 C 
BRANCH   6   7
ATOM      7  O   SER A   1      13.192  21.114  -6.962  0.00  0.00    -0.380 OA
ATOM      8  H   SER A   1      13.331  20.753  -7.873  0.00  0.00    +0.211 HD
ENDBRANCH   6   7
ENDBRANCH   1   6
TORSDOF 4
REMARK  Name = ../refined-set-2016/3o4k/3o4k_pocket.pdb
REMARK  297 active torsions:
REMARK  status: ('A' for Active; 'I' for Inactive)
REMARK    1  A    between atoms: _1  and  _3
REMARK    2  A    between atoms: _3  and  _4
REMARK    3  A    between atoms: _3  and  _6
REMARK    4  A    between atoms: _6  and  _7
REMARK    5  A    between atoms: _7  and  _8
REMARK    6  A    between atoms: _8  and  _9
REMARK    7  A    between atoms: _18  and  _20
REMARK    8  A    between atoms: _20  and  _21
REMARK    9  A    between atoms: _20  and  _23
REMARK   10  A    between atoms: _23  and  _24
REMARK   11  A    between atoms: _29  and  _30
REMARK   12  A    between atoms: _32  and  _34
REMARK   13  A    between atoms: _34  and  _35
REMARK   14  A    between atoms: _34  and  _37
REMARK   15  A    between atoms: _37  and  _38
REMARK   16  A    between atoms: _48  and  _50
REMARK   17  A    between atoms: _50  and  _51
REMARK   18  A    between atoms: _50  and  _53
REMARK   19  A    between atoms: _53  and  _54
REMARK   20  A    between atoms: _54  and  _55
REMARK   21  A    between atoms: _55  and  _56
REMARK   22  A    between atoms: _65  and  _67
REMARK   23  A    between atoms: _67  and  _68
REMARK   24  A    between atoms: _67  and  _70
REMARK   25  A    between atoms: _70  and  _71
REMARK   26  A    between atoms: _73  and  _75
REMARK   27  A    between atoms: _75  and  _76
REMARK   28  A    between atoms: _75  and  _78
REMARK   29  A    between atoms: _78  and  _79
REMARK   30  A    between atoms: _84  and  _86
REMARK   31  A    between atoms: _86  and  _87
REMARK   32  A    between atoms: _86  and  _89
REMARK   33  A    between atoms: _89  and  _90
REMARK   34  A    between atoms: _95  and  _96
REMARK   35  A    between atoms: _98  and  _100
REMARK   36  A    between atoms: _100  and  _101
REMARK   37  A    between atoms: _100  and  _103
REMARK   38  A    between atoms: _103  and  _104
REMARK   39  A    between atoms: _104  and  _105
REMARK   40  A    between atoms: _108  and  _110
REMARK   41  A    between atoms: _110  and  _111
REMARK   42  A    between atoms: _110  and  _113
REMARK   43  A    between atoms: _116  and  _118
REMARK   44  A    between atoms: _118  and  _119
REMARK   45  A    between atoms: _118  and  _121
REMARK   46  A    between atoms: _121  and  _122
REMARK   47  A    between atoms: _122  and  _123
REMARK   48  A    between atoms: _123  and  _124
REMARK   49  A    between atoms: _124  and  _125
REMARK   50  A    between atoms: _129  and  _131
REMARK   51  A    between atoms: _131  and  _132
REMARK   52  A    between atoms: _131  and  _134
REMARK   53  A    between atoms: _134  and  _135
REMARK   54  A    between atoms: _140  and  _142
REMARK   55  A    between atoms: _142  and  _143
REMARK   56  A    between atoms: _142  and  _145
REMARK   57  A    between atoms: _145  and  _146
REMARK   58  A    between atoms: _151  and  _152
REMARK   59  A    between atoms: _154  and  _156
REMARK   60  A    between atoms: _156  and  _157
REMARK   61  A    between atoms: _156  and  _159
REMARK   62  A    between atoms: _159  and  _160
REMARK   63  A    between atoms: _160  and  _161
REMARK   64  A    between atoms: _161  and  _162
REMARK   65  A    between atoms: _171  and  _173
REMARK   66  A    between atoms: _173  and  _174
REMARK   67  A    between atoms: _178  and  _180
REMARK   68  A    between atoms: _180  and  _181
REMARK   69  A    between atoms: _180  and  _183
REMARK   70  A    between atoms: _183  and  _184
REMARK   71  A    between atoms: _186  and  _188
REMARK   72  A    between atoms: _188  and  _189
REMARK   73  A    between atoms: _188  and  _191
REMARK   74  A    between atoms: _191  and  _192
REMARK   75  A    between atoms: _192  and  _193
REMARK   76  A    between atoms: _196  and  _198
REMARK   77  A    between atoms: _198  and  _199
REMARK   78  A    between atoms: _198  and  _201
REMARK   79  A    between atoms: _201  and  _202
REMARK   80  A    between atoms: _202  and  _352
REMARK   81  A    between atoms: _203  and  _205
REMARK   82  A    between atoms: _205  and  _206
REMARK   83  A    between atoms: _205  and  _208
REMARK   84  A    between atoms: _208  and  _209
REMARK   85  A    between atoms: _209  and  _210
REMARK   86  A    between atoms: _210  and  _211
REMARK   87  A    between atoms: _220  and  _222
REMARK   88  A    between atoms: _222  and  _223
REMARK   89  A    between atoms: _222  and  _225
REMARK   90  A    between atoms: _225  and  _226
REMARK   91  A    between atoms: _226  and  _227
REMARK   92  A    between atoms: _230  and  _232
REMARK   93  A    between atoms: _232  and  _233
REMARK   94  A    between atoms: _232  and  _235
REMARK   95  A    between atoms: _235  and  _236
REMARK   96  A    between atoms: _236  and  _237
REMARK   97  A    between atoms: _237  and  _238
REMARK   98  A    between atoms: _247  and  _249
REMARK   99  A    between atoms: _249  and  _250
REMARK  100  A    between atoms: _249  and  _252
REMARK  101  A    between atoms: _252  and  _253
REMARK  102  A    between atoms: _255  and  _257
REMARK  103  A    between atoms: _257  and  _258
REMARK  104  A    between atoms: _257  and  _260
REMARK  105  A    between atoms: _260  and  _261
REMARK  106  A    between atoms: _266  and  _267
REMARK  107  A    between atoms: _269  and  _271
REMARK  108  A    between atoms: _271  and  _272
REMARK  109  A    between atoms: _271  and  _274
REMARK  110  A    between atoms: _274  and  _275
REMARK  111  A    between atoms: _280  and  _282
REMARK  112  A    between atoms: _282  and  _283
REMARK  113  A    between atoms: _282  and  _285
REMARK  114  A    between atoms: _288  and  _290
REMARK  115  A    between atoms: _290  and  _291
REMARK  116  A    between atoms: _290  and  _293
REMARK  117  A    between atoms: _293  and  _294
REMARK  118  A    between atoms: _294  and  _295
REMARK  119  A    between atoms: _295  and  _296
REMARK  120  A    between atoms: _305  and  _307
REMARK  121  A    between atoms: _307  and  _308
REMARK  122  A    between atoms: _307  and  _310
REMARK  123  A    between atoms: _310  and  _311
REMARK  124  A    between atoms: _316  and  _318
REMARK  125  A    between atoms: _318  and  _319
REMARK  126  A    between atoms: _318  and  _321
REMARK  127  A    between atoms: _321  and  _322
REMARK  128  A    between atoms: _325  and  _327
REMARK  129  A    between atoms: _327  and  _328
REMARK  130  A    between atoms: _330  and  _332
REMARK  131  A    between atoms: _332  and  _333
REMARK  132  A    between atoms: _332  and  _335
REMARK  133  A    between atoms: _335  and  _336
REMARK  134  A    between atoms: _346  and  _348
REMARK  135  A    between atoms: _348  and  _349
REMARK  136  A    between atoms: _348  and  _351
REMARK  137  A    between atoms: _351  and  _352
REMARK  138  A    between atoms: _353  and  _355
REMARK  139  A    between atoms: _355  and  _356
REMARK  140  A    between atoms: _355  and  _358
REMARK  141  A    between atoms: _358  and  _359
REMARK  142  A    between atoms: _362  and  _364
REMARK  143  A    between atoms: _364  and  _365
REMARK  144  A    between atoms: _367  and  _369
REMARK  145  A    between atoms: _369  and  _370
REMARK  146  A    between atoms: _369  and  _372
REMARK  147  A    between atoms: _372  and  _373
REMARK  148  A    between atoms: _378  and  _379
REMARK  149  A    between atoms: _381  and  _383
REMARK  150  A    between atoms: _383  and  _384
REMARK  151  A    between atoms: _383  and  _386
REMARK  152  A    between atoms: _386  and  _387
REMARK  153  A    between atoms: _387  and  _388
REMARK  154  A    between atoms: _388  and  _389
REMARK  155  A    between atoms: _398  and  _400
REMARK  156  A    between atoms: _400  and  _401
REMARK  157  A    between atoms: _400  and  _403
REMARK  158  A    between atoms: _403  and  _404
REMARK  159  A    between atoms: _407  and  _409
REMARK  160  A    between atoms: _409  and  _410
REMARK  161  A    between atoms: _409  and  _412
REMARK  162  A    between atoms: _412  and  _413
REMARK  163  A    between atoms: _413  and  _414
REMARK  164  A    between atoms: _414  and  _415
REMARK  165  A    between atoms: _415  and  _416
REMARK  166  A    between atoms: _420  and  _422
REMARK  167  A    between atoms: _422  and  _423
REMARK  168  A    between atoms: _425  and  _427
REMARK  169  A    between atoms: _427  and  _428
REMARK  170  A    between atoms: _431  and  _433
REMARK  171  A    between atoms: _433  and  _434
REMARK  172  A    between atoms: _433  and  _436
REMARK  173  A    between atoms: _436  and  _437
REMARK  174  A    between atoms: _442  and  _444
REMARK  175  A    between atoms: _444  and  _445
REMARK  176  A    between atoms: _448  and  _450
REMARK  177  A    between atoms: _450  and  _451
REMARK  178  A    between atoms: _454  and  _455
REMARK  179  A    between atoms: _460  and  _462
REMARK  180  A    between atoms: _462  and  _463
REMARK  181  A    between atoms: _462  and  _465
REMARK  182  A    between atoms: _465  and  _466
REMARK  183  A    between atoms: _469  and  _471
REMARK  184  A    between atoms: _471  and  _472
REMARK  185  A    between atoms: _471  and  _474
REMARK  186  A    between atoms: _474  and  _475
REMARK  187  A    between atoms: _485  and  _487
REMARK  188  A    between atoms: _487  and  _488
REMARK  189  A    between atoms: _487  and  _490
REMARK  190  A    between atoms: _490  and  _491
REMARK  191  A    between atoms: _497  and  _498
REMARK  192  A    between atoms: _503  and  _505
REMARK  193  A    between atoms: _505  and  _506
REMARK  194  A    between atoms: _505  and  _508
REMARK  195  A    between atoms: _508  and  _509
REMARK  196  A    between atoms: _514  and  _516
REMARK  197  A    between atoms: _516  and  _517
REMARK  198  A    between atoms: _516  and  _519
REMARK  199  A    between atoms: _522  and  _524
REMARK  200  A    between atoms: _524  and  _525
REMARK  201  A    between atoms: _524  and  _527
REMARK  202  A    between atoms: _527  and  _528
REMARK  203  A    between atoms: _528  and  _529
REMARK  204  A    between atoms: _535  and  _536
REMARK  205  A    between atoms: _541  and  _543
REMARK  206  A    between atoms: _543  and  _544
REMARK  207  A    between atoms: _543  and  _546
REMARK  208  A    between atoms: _546  and  _547
REMARK  209  A    between atoms: _550  and  _552
REMARK  210  A    between atoms: _552  and  _553
REMARK  211  A    between atoms: _552  and  _555
REMARK  212  A    between atoms: _555  and  _556
REMARK  213  A    between atoms: _558  and  _560
REMARK  214  A    between atoms: _560  and  _561
REMARK  215  A    between atoms: _560  and  _563
REMARK  216  A    between atoms: _563  and  _564
REMARK  217  A    between atoms: _569  and  _570
REMARK  218  A    between atoms: _572  and  _574
REMARK  219  A    between atoms: _574  and  _575
REMARK  220  A    between atoms: _574  and  _577
REMARK  221  A    between atoms: _577  and  _578
REMARK  222  A    between atoms: _588  and  _590
REMARK  223  A    between atoms: _590  and  _591
REMARK  224  A    between atoms: _593  and  _595
REMARK  225  A    between atoms: _595  and  _596
REMARK  226  A    between atoms: _599  and  _601
REMARK  227  A    between atoms: _601  and  _602
REMARK  228  A    between atoms: _601  and  _604
REMARK  229  A    between atoms: _604  and  _605
REMARK  230  A    between atoms: _610  and  _612
REMARK  231  A    between atoms: _612  and  _613
REMARK  232  A    between atoms: _616  and  _618
REMARK  233  A    between atoms: _618  and  _619
REMARK  234  A    between atoms: _622  and  _623
REMARK  235  A    between atoms: _628  and  _630
REMARK  236  A    between atoms: _630  and  _631
REMARK  237  A    between atoms: _630  and  _633
REMARK  238  A    between atoms: _633  and  _634
REMARK  239  A    between atoms: _637  and  _639
REMARK  240  A    between atoms: _639  and  _640
REMARK  241  A    between atoms: _639  and  _642
REMARK  242  A    between atoms: _642  and  _643
REMARK  243  A    between atoms: _653  and  _655
REMARK  244  A    between atoms: _655  and  _656
REMARK  245  A    between atoms: _655  and  _658
REMARK  246  A    between atoms: _658  and  _659
REMARK  247  A    between atoms: _664  and  _666
REMARK  248  A    between atoms: _666  and  _667
REMARK  249  A    between atoms: _666  and  _669
REMARK  250  A    between atoms: _669  and  _670
REMARK  251  A    between atoms: _673  and  _675
REMARK  252  A    between atoms: _675  and  _676
REMARK  253  A    between atoms: _675  and  _678
REMARK  254  A    between atoms: _678  and  _679
REMARK  255  A    between atoms: _679  and  _680
REMARK  256  A    between atoms: _683  and  _685
REMARK  257  A    between atoms: _685  and  _686
REMARK  258  A    between atoms: _685  and  _688
REMARK  259  A    between atoms: _688  and  _689
REMARK  260  A    between atoms: _689  and  _690
REMARK  261  A    between atoms: _690  and  _691
REMARK  262  A    between atoms: _691  and  _692
REMARK  263  A    between atoms: _696  and  _698
REMARK  264  A    between atoms: _698  and  _699
REMARK  265  A    between atoms: _698  and  _701
REMARK  266  A    between atoms: _701  and  _702
REMARK  267  A    between atoms: _707  and  _709
REMARK  268  A    between atoms: _709  and  _710
REMARK  269  A    between atoms: _709  and  _712
REMARK  270  A    between atoms: _712  and  _713
REMARK  271  A    between atoms: _713  and  _714
REMARK  272  A    between atoms: _714  and  _715
REMARK  273  A    between atoms: _724  and  _726
REMARK  274  A    between atoms: _726  and  _727
REMARK  275  A    between atoms: _726  and  _729
REMARK  276  A    between atoms: _729  and  _730
REMARK  277  A    between atoms: _733  and  _735
REMARK  278  A    between atoms: _735  and  _736
REMARK  279  A    between atoms: _735  and  _738
REMARK  280  A    between atoms: _741  and  _743
REMARK  281  A    between atoms: _743  and  _744
REMARK  282  A    between atoms: _743  and  _746
REMARK  283  A    between atoms: _746  and  _747
REMARK  284  A    between atoms: _747  and  _748
REMARK  285  A    between atoms: _754  and  _755
REMARK  286  A    between atoms: _760  and  _762
REMARK  287  A    between atoms: _762  and  _763
REMARK  288  A    between atoms: _762  and  _765
REMARK  289  A    between atoms: _765  and  _766
REMARK  290  A    between atoms: _769  and  _771
REMARK  291  A    between atoms: _771  and  _772
REMARK  292  A    between atoms: _771  and  _774
REMARK  293  A    between atoms: _774  and  _775
REMARK  294  A    between atoms: _775  and  _776
REMARK  295  A    between atoms: _776  and  _777
REMARK  296  A    between atoms: _786  and  _788
REMARK  297  A    between atoms: _788  and  _789
REMARK                            x       y       z     vdW  Elec       q    Type
REMARK                         _______ _______ _______ _____ _____    ______ ____
ROOT
ATOM      1  CG  TYR A   1       7.851  30.394 -29.634  0.00  0.00    -0.020 A 
ATOM      2  CD2 TYR A   1       6.669  29.679 -29.851  0.00  0.00    -0.001 A 
ATOM      3  CE2 TYR A   1       6.543  28.801 -30.931  0.00  0.00    +0.036 A 
ATOM      4  CZ  TYR A   1       7.607  28.635 -31.807  0.00  0.00    +0.134 A 
ATOM      5  CE1 TYR A   1       8.793  29.330 -31.611  0.00  0.00    +0.036 A 
ATOM      6  CD1 TYR A   1       8.909  30.205 -30.524  0.00  0.00    -0.001 A 
ENDROOT
BRANCH   4   7
ATOM      7  OH  TYR A   1       7.478  27.792 -32.890  0.00  0.00    -0.506 OA
ATOM      8  HH  TYR A   1       6.578  27.379 -32.880  0.00  0.00    +0.292 HD
ENDBRANCH   4   7
BRANCH   1   9
ATOM      9  CB  TYR A   1       7.969  31.383 -28.500  0.00  0.00    +0.051 C 
BRANCH   9  10
ATOM     10  CA  TYR A   1       7.324  32.746 -28.785  0.00  0.00    +0.137 C 
BRANCH  10  11
ATOM     11  N   TYR A   1       7.914  33.315 -29.993  0.00  0.00    -0.239 NA
ATOM     12  H   TYR A   1       8.935  33.513 -30.020  0.00  0.00    +0.142 HD
ENDBRANCH  10  11
BRANCH  10  13
ATOM     13  C   TYR A   1       7.383  33.585 -27.514  0.00  0.00    +0.224 C 
ATOM     14  O   TYR A   1       8.322  34.336 -27.293  0.00  0.00    -0.287 OA
ENDBRANCH  10  13
ENDBRANCH   9  10
ENDBRANCH   1   9
TORSDOF 5
REMARK  Name = ../refined-set-2016/3o4k/3o4k_pocket.pdb
REMARK  297 active torsions:
REMARK  status: ('A' for Active; 'I' for Inactive)
REMARK    1  A    between atoms: _1  and  _3
REMARK    2  A    between atoms: _3  and  _4
REMARK    3  A    between atoms: _3  and  _6
REMARK    4  A    between atoms: _6  and  _7
REMARK    5  A    between atoms: _7  and  _8
REMARK    6  A    between atoms: _8  and  _9
REMARK    7  A    between atoms: _18  and  _20
REMARK    8  A    between atoms: _20  and  _21
REMARK    9  A    between atoms: _20  and  _23
REMARK   10  A    between atoms: _23  and  _24
REMARK   11  A    between atoms: _29  and  _30
REMARK   12  A    between atoms: _32  and  _34
REMARK   13  A    between atoms: _34  and  _35
REMARK   14  A    between atoms: _34  and  _37
REMARK   15  A    between atoms: _37  and  _38
REMARK   16  A    between atoms: _48  and  _50
REMARK   17  A    between atoms: _50  and  _51
REMARK   18  A    between atoms: _50  and  _53
REMARK   19  A    between atoms: _53  and  _54
REMARK   20  A    between atoms: _54  and  _55
REMARK   21  A    between atoms: _55  and  _56
REMARK   22  A    between atoms: _65  and  _67
REMARK   23  A    between atoms: _67  and  _68
REMARK   24  A    between atoms: _67  and  _70
REMARK   25  A    between atoms: _70  and  _71
REMARK   26  A    between atoms: _73  and  _75
REMARK   27  A    between atoms: _75  and  _76
REMARK   28  A    between atoms: _75  and  _78
REMARK   29  A    between atoms: _78  and  _79
REMARK   30  A    between atoms: _84  and  _86
REMARK   31  A    between atoms: _86  and  _87
REMARK   32  A    between atoms: _86  and  _89
REMARK   33  A    between atoms: _89  and  _90
REMARK   34  A    between atoms: _95  and  _96
REMARK   35  A    between atoms: _98  and  _100
REMARK   36  A    between atoms: _100  and  _101
REMARK   37  A    between atoms: _100  and  _103
REMARK   38  A    between atoms: _103  and  _104
REMARK   39  A    between atoms: _104  and  _105
REMARK   40  A    between atoms: _108  and  _110
REMARK   41  A    between atoms: _110  and  _111
REMARK   42  A    between atoms: _110  and  _113
REMARK   43  A    between atoms: _116  and  _118
REMARK   44  A    between atoms: _118  and  _119
REMARK   45  A    between atoms: _118  and  _121
REMARK   46  A    between atoms: _121  and  _122
REMARK   47  A    between atoms: _122  and  _123
REMARK   48  A    between atoms: _123  and  _124
REMARK   49  A    between atoms: _124  and  _125
REMARK   50  A    between atoms: _129  and  _131
REMARK   51  A    between atoms: _131  and  _132
REMARK   52  A    between atoms: _131  and  _134
REMARK   53  A    between atoms: _134  and  _135
REMARK   54  A    between atoms: _140  and  _142
REMARK   55  A    between atoms: _142  and  _143
REMARK   56  A    between atoms: _142  and  _145
REMARK   57  A    between atoms: _145  and  _146
REMARK   58  A    between atoms: _151  and  _152
REMARK   59  A    between atoms: _154  and  _156
REMARK   60  A    between atoms: _156  and  _157
REMARK   61  A    between atoms: _156  and  _159
REMARK   62  A    between atoms: _159  and  _160
REMARK   63  A    between atoms: _160  and  _161
REMARK   64  A    between atoms: _161  and  _162
REMARK   65  A    between atoms: _171  and  _173
REMARK   66  A    between atoms: _173  and  _174
REMARK   67  A    between atoms: _178  and  _180
REMARK   68  A    between atoms: _180  and  _181
REMARK   69  A    between atoms: _180  and  _183
REMARK   70  A    between atoms: _183  and  _184
REMARK   71  A    between atoms: _186  and  _188
REMARK   72  A    between atoms: _188  and  _189
REMARK   73  A    between atoms: _188  and  _191
REMARK   74  A    between atoms: _191  and  _192
REMARK   75  A    between atoms: _192  and  _193
REMARK   76  A    between atoms: _196  and  _198
REMARK   77  A    between atoms: _198  and  _199
REMARK   78  A    between atoms: _198  and  _201
REMARK   79  A    between atoms: _201  and  _202
REMARK   80  A    between atoms: _202  and  _352
REMARK   81  A    between atoms: _203  and  _205
REMARK   82  A    between atoms: _205  and  _206
REMARK   83  A    between atoms: _205  and  _208
REMARK   84  A    between atoms: _208  and  _209
REMARK   85  A    between atoms: _209  and  _210
REMARK   86  A    between atoms: _210  and  _211
REMARK   87  A    between atoms: _220  and  _222
REMARK   88  A    between atoms: _222  and  _223
REMARK   89  A    between atoms: _222  and  _225
REMARK   90  A    between atoms: _225  and  _226
REMARK   91  A    between atoms: _226  and  _227
REMARK   92  A    between atoms: _230  and  _232
REMARK   93  A    between atoms: _232  and  _233
REMARK   94  A    between atoms: _232  and  _235
REMARK   95  A    between atoms: _235  and  _236
REMARK   96  A    between atoms: _236  and  _237
REMARK   97  A    between atoms: _237  and  _238
REMARK   98  A    between atoms: _247  and  _249
REMARK   99  A    between atoms: _249  and  _250
REMARK  100  A    between atoms: _249  and  _252
REMARK  101  A    between atoms: _252  and  _253
REMARK  102  A    between atoms: _255  and  _257
REMARK  103  A    between atoms: _257  and  _258
REMARK  104  A    between atoms: _257  and  _260
REMARK  105  A    between atoms: _260  and  _261
REMARK  106  A    between atoms: _266  and  _267
REMARK  107  A    between atoms: _269  and  _271
REMARK  108  A    between atoms: _271  and  _272
REMARK  109  A    between atoms: _271  and  _274
REMARK  110  A    between atoms: _274  and  _275
REMARK  111  A    between atoms: _280  and  _282
REMARK  112  A    between atoms: _282  and  _283
REMARK  113  A    between atoms: _282  and  _285
REMARK  114  A    between atoms: _288  and  _290
REMARK  115  A    between atoms: _290  and  _291
REMARK  116  A    between atoms: _290  and  _293
REMARK  117  A    between atoms: _293  and  _294
REMARK  118  A    between atoms: _294  and  _295
REMARK  119  A    between atoms: _295  and  _296
REMARK  120  A    between atoms: _305  and  _307
REMARK  121  A    between atoms: _307  and  _308
REMARK  122  A    between atoms: _307  and  _310
REMARK  123  A    between atoms: _310  and  _311
REMARK  124  A    between atoms: _316  and  _318
REMARK  125  A    between atoms: _318  and  _319
REMARK  126  A    between atoms: _318  and  _321
REMARK  127  A    between atoms: _321  and  _322
REMARK  128  A    between atoms: _325  and  _327
REMARK  129  A    between atoms: _327  and  _328
REMARK  130  A    between atoms: _330  and  _332
REMARK  131  A    between atoms: _332  and  _333
REMARK  132  A    between atoms: _332  and  _335
REMARK  133  A    between atoms: _335  and  _336
REMARK  134  A    between atoms: _346  and  _348
REMARK  135  A    between atoms: _348  and  _349
REMARK  136  A    between atoms: _348  and  _351
REMARK  137  A    between atoms: _351  and  _352
REMARK  138  A    between atoms: _353  and  _355
REMARK  139  A    between atoms: _355  and  _356
REMARK  140  A    between atoms: _355  and  _358
REMARK  141  A    between atoms: _358  and  _359
REMARK  142  A    between atoms: _362  and  _364
REMARK  143  A    between atoms: _364  and  _365
REMARK  144  A    between atoms: _367  and  _369
REMARK  145  A    between atoms: _369  and  _370
REMARK  146  A    between atoms: _369  and  _372
REMARK  147  A    between atoms: _372  and  _373
REMARK  148  A    between atoms: _378  and  _379
REMARK  149  A    between atoms: _381  and  _383
REMARK  150  A    between atoms: _383  and  _384
REMARK  151  A    between atoms: _383  and  _386
REMARK  152  A    between atoms: _386  and  _387
REMARK  153  A    between atoms: _387  and  _388
REMARK  154  A    between atoms: _388  and  _389
REMARK  155  A    between atoms: _398  and  _400
REMARK  156  A    between atoms: _400  and  _401
REMARK  157  A    between atoms: _400  and  _403
REMARK  158  A    between atoms: _403  and  _404
REMARK  159  A    between atoms: _407  and  _409
REMARK  160  A    between atoms: _409  and  _410
REMARK  161  A    between atoms: _409  and  _412
REMARK  162  A    between atoms: _412  and  _413
REMARK  163  A    between atoms: _413  and  _414
REMARK  164  A    between atoms: _414  and  _415
REMARK  165  A    between atoms: _415  and  _416
REMARK  166  A    between atoms: _420  and  _422
REMARK  167  A    between atoms: _422  and  _423
REMARK  168  A    between atoms: _425  and  _427
REMARK  169  A    between atoms: _427  and  _428
REMARK  170  A    between atoms: _431  and  _433
REMARK  171  A    between atoms: _433  and  _434
REMARK  172  A    between atoms: _433  and  _436
REMARK  173  A    between atoms: _436  and  _437
REMARK  174  A    between atoms: _442  and  _444
REMARK  175  A    between atoms: _444  and  _445
REMARK  176  A    between atoms: _448  and  _450
REMARK  177  A    between atoms: _450  and  _451
REMARK  178  A    between atoms: _454  and  _455
REMARK  179  A    between atoms: _460  and  _462
REMARK  180  A    between atoms: _462  and  _463
REMARK  181  A    between atoms: _462  and  _465
REMARK  182  A    between atoms: _465  and  _466
REMARK  183  A    between atoms: _469  and  _471
REMARK  184  A    between atoms: _471  and  _472
REMARK  185  A    between atoms: _471  and  _474
REMARK  186  A    between atoms: _474  and  _475
REMARK  187  A    between atoms: _485  and  _487
REMARK  188  A    between atoms: _487  and  _488
REMARK  189  A    between atoms: _487  and  _490
REMARK  190  A    between atoms: _490  and  _491
REMARK  191  A    between atoms: _497  and  _498
REMARK  192  A    between atoms: _503  and  _505
REMARK  193  A    between atoms: _505  and  _506
REMARK  194  A    between atoms: _505  and  _508
REMARK  195  A    between atoms: _508  and  _509
REMARK  196  A    between atoms: _514  and  _516
REMARK  197  A    between atoms: _516  and  _517
REMARK  198  A    between atoms: _516  and  _519
REMARK  199  A    between atoms: _522  and  _524
REMARK  200  A    between atoms: _524  and  _525
REMARK  201  A    between atoms: _524  and  _527
REMARK  202  A    between atoms: _527  and  _528
REMARK  203  A    between atoms: _528  and  _529
REMARK  204  A    between atoms: _535  and  _536
REMARK  205  A    between atoms: _541  and  _543
REMARK  206  A    between atoms: _543  and  _544
REMARK  207  A    between atoms: _543  and  _546
REMARK  208  A    between atoms: _546  and  _547
REMARK  209  A    between atoms: _550  and  _552
REMARK  210  A    between atoms: _552  and  _553
REMARK  211  A    between atoms: _552  and  _555
REMARK  212  A    between atoms: _555  and  _556
REMARK  213  A    between atoms: _558  and  _560
REMARK  214  A    between atoms: _560  and  _561
REMARK  215  A    between atoms: _560  and  _563
REMARK  216  A    between atoms: _563  and  _564
REMARK  217  A    between atoms: _569  and  _570
REMARK  218  A    between atoms: _572  and  _574
REMARK  219  A    between atoms: _574  and  _575
REMARK  220  A    between atoms: _574  and  _577
REMARK  221  A    between atoms: _577  and  _578
REMARK  222  A    between atoms: _588  and  _590
REMARK  223  A    between atoms: _590  and  _591
REMARK  224  A    between atoms: _593  and  _595
REMARK  225  A    between atoms: _595  and  _596
REMARK  226  A    between atoms: _599  and  _601
REMARK  227  A    between atoms: _601  and  _602
REMARK  228  A    between atoms: _601  and  _604
REMARK  229  A    between atoms: _604  and  _605
REMARK  230  A    between atoms: _610  and  _612
REMARK  231  A    between atoms: _612  and  _613
REMARK  232  A    between atoms: _616  and  _618
REMARK  233  A    between atoms: _618  and  _619
REMARK  234  A    between atoms: _622  and  _623
REMARK  235  A    between atoms: _628  and  _630
REMARK  236  A    between atoms: _630  and  _631
REMARK  237  A    between atoms: _630  and  _633
REMARK  238  A    between atoms: _633  and  _634
REMARK  239  A    between atoms: _637  and  _639
REMARK  240  A    between atoms: _639  and  _640
REMARK  241  A    between atoms: _639  and  _642
REMARK  242  A    between atoms: _642  and  _643
REMARK  243  A    between atoms: _653  and  _655
REMARK  244  A    between atoms: _655  and  _656
REMARK  245  A    between atoms: _655  and  _658
REMARK  246  A    between atoms: _658  and  _659
REMARK  247  A    between atoms: _664  and  _666
REMARK  248  A    between atoms: _666  and  _667
REMARK  249  A    between atoms: _666  and  _669
REMARK  250  A    between atoms: _669  and  _670
REMARK  251  A    between atoms: _673  and  _675
REMARK  252  A    between atoms: _675  and  _676
REMARK  253  A    between atoms: _675  and  _678
REMARK  254  A    between atoms: _678  and  _679
REMARK  255  A    between atoms: _679  and  _680
REMARK  256  A    between atoms: _683  and  _685
REMARK  257  A    between atoms: _685  and  _686
REMARK  258  A    between atoms: _685  and  _688
REMARK  259  A    between atoms: _688  and  _689
REMARK  260  A    between atoms: _689  and  _690
REMARK  261  A    between atoms: _690  and  _691
REMARK  262  A    between atoms: _691  and  _692
REMARK  263  A    between atoms: _696  and  _698
REMARK  264  A    between atoms: _698  and  _699
REMARK  265  A    between atoms: _698  and  _701
REMARK  266  A    between atoms: _701  and  _702
REMARK  267  A    between atoms: _707  and  _709
REMARK  268  A    between atoms: _709  and  _710
REMARK  269  A    between atoms: _709  and  _712
REMARK  270  A    between atoms: _712  and  _713
REMARK  271  A    between atoms: _713  and  _714
REMARK  272  A    between atoms: _714  and  _715
REMARK  273  A    between atoms: _724  and  _726
REMARK  274  A    between atoms: _726  and  _727
REMARK  275  A    between atoms: _726  and  _729
REMARK  276  A    between atoms: _729  and  _730
REMARK  277  A    between atoms: _733  and  _735
REMARK  278  A    between atoms: _735  and  _736
REMARK  279  A    between atoms: _735  and  _738
REMARK  280  A    between atoms: _741  and  _743
REMARK  281  A    between atoms: _743  and  _744
REMARK  282  A    between atoms: _743  and  _746
REMARK  283  A    between atoms: _746  and  _747
REMARK  284  A    between atoms: _747  and  _748
REMARK  285  A    between atoms: _754  and  _755
REMARK  286  A    between atoms: _760  and  _762
REMARK  287  A    between atoms: _762  and  _763
REMARK  288  A    between atoms: _762  and  _765
REMARK  289  A    between atoms: _765  and  _766
REMARK  290  A    between atoms: _769  and  _771
REMARK  291  A    between atoms: _771  and  _772
REMARK  292  A    between atoms: _771  and  _774
REMARK  293  A    between atoms: _774  and  _775
REMARK  294  A    between atoms: _775  and  _776
REMARK  295  A    between atoms: _776  and  _777
REMARK  296  A    between atoms: _786  and  _788
REMARK  297  A    between atoms: _788  and  _789
REMARK                            x       y       z     vdW  Elec       q    Type
REMARK                         _______ _______ _______ _____ _____    ______ ____
ROOT
ATOM      1  CG  TRP A   1      21.518  33.503 -13.721  0.00  0.00    -0.002 A 
ATOM      2  CD1 TRP A   1      22.352  32.422 -13.729  0.00  0.00    +0.068 A 
ATOM      3  NE1 TRP A   1      21.626  31.264 -13.861  0.00  0.00    -0.352 N 
ATOM      4  HE1 TRP A   1      22.022  30.303 -13.900  0.00  0.00    +0.166 HD
ATOM      5  CE2 TRP A   1      20.295  31.580 -13.933  0.00  0.00    +0.056 A 
ATOM      6  CZ2 TRP A   1      19.177  30.753 -14.070  0.00  0.00    +0.017 A 
ATOM      7  CH2 TRP A   1      17.945  31.356 -14.114  0.00  0.00    +0.001 A 
ATOM      8  CZ3 TRP A   1      17.805  32.752 -14.022  0.00  0.00    +0.000 A 
ATOM      9  CE3 TRP A   1      18.916  33.573 -13.888  0.00  0.00    +0.001 A 
ATOM     10  CD2 TRP A   1      20.189  32.985 -13.842  0.00  0.00    +0.013 A 
ENDROOT
BRANCH   1  11
ATOM     11  CB  TRP A   1      21.917  34.942 -13.718  0.00  0.00    +0.053 C 
BRANCH  11  12
ATOM     12  CA  TRP A   1      23.408  35.171 -13.505  0.00  0.00    +0.137 C 
BRANCH  12  13
ATOM     13  N   TRP A   1      23.775  34.800 -12.141  0.00  0.00    -0.239 NA
ATOM     14  H   TRP A   1      23.059  34.868 -11.390  0.00  0.00    +0.142 HD
ENDBRANCH  12  13
BRANCH  12  15
ATOM     15  C   TRP A   1      23.745  36.619 -13.845  0.00  0.00    +0.224 C 
ATOM     16  O   TRP A   1      23.836  37.465 -12.965  0.00  0.00    -0.287 OA
ENDBRANCH  12  15
ENDBRANCH  11  12
ENDBRANCH   1  11
TORSDOF 4
REMARK  Name = ../refined-set-2016/3o4k/3o4k_pocket.pdb
REMARK  297 active torsions:
REMARK  status: ('A' for Active; 'I' for Inactive)
REMARK    1  A    between atoms: _1  and  _3
REMARK    2  A    between atoms: _3  and  _4
REMARK    3  A    between atoms: _3  and  _6
REMARK    4  A    between atoms: _6  and  _7
REMARK    5  A    between atoms: _7  and  _8
REMARK    6  A    between atoms: _8  and  _9
REMARK    7  A    between atoms: _18  and  _20
REMARK    8  A    between atoms: _20  and  _21
REMARK    9  A    between atoms: _20  and  _23
REMARK   10  A    between atoms: _23  and  _24
REMARK   11  A    between atoms: _29  and  _30
REMARK   12  A    between atoms: _32  and  _34
REMARK   13  A    between atoms: _34  and  _35
REMARK   14  A    between atoms: _34  and  _37
REMARK   15  A    between atoms: _37  and  _38
REMARK   16  A    between atoms: _48  and  _50
REMARK   17  A    between atoms: _50  and  _51
REMARK   18  A    between atoms: _50  and  _53
REMARK   19  A    between atoms: _53  and  _54
REMARK   20  A    between atoms: _54  and  _55
REMARK   21  A    between atoms: _55  and  _56
REMARK   22  A    between atoms: _65  and  _67
REMARK   23  A    between atoms: _67  and  _68
REMARK   24  A    between atoms: _67  and  _70
REMARK   25  A    between atoms: _70  and  _71
REMARK   26  A    between atoms: _73  and  _75
REMARK   27  A    between atoms: _75  and  _76
REMARK   28  A    between atoms: _75  and  _78
REMARK   29  A    between atoms: _78  and  _79
REMARK   30  A    between atoms: _84  and  _86
REMARK   31  A    between atoms: _86  and  _87
REMARK   32  A    between atoms: _86  and  _89
REMARK   33  A    between atoms: _89  and  _90
REMARK   34  A    between atoms: _95  and  _96
REMARK   35  A    between atoms: _98  and  _100
REMARK   36  A    between atoms: _100  and  _101
REMARK   37  A    between atoms: _100  and  _103
REMARK   38  A    between atoms: _103  and  _104
REMARK   39  A    between atoms: _104  and  _105
REMARK   40  A    between atoms: _108  and  _110
REMARK   41  A    between atoms: _110  and  _111
REMARK   42  A    between atoms: _110  and  _113
REMARK   43  A    between atoms: _116  and  _118
REMARK   44  A    between atoms: _118  and  _119
REMARK   45  A    between atoms: _118  and  _121
REMARK   46  A    between atoms: _121  and  _122
REMARK   47  A    between atoms: _122  and  _123
REMARK   48  A    between atoms: _123  and  _124
REMARK   49  A    between atoms: _124  and  _125
REMARK   50  A    between atoms: _129  and  _131
REMARK   51  A    between atoms: _131  and  _132
REMARK   52  A    between atoms: _131  and  _134
REMARK   53  A    between atoms: _134  and  _135
REMARK   54  A    between atoms: _140  and  _142
REMARK   55  A    between atoms: _142  and  _143
REMARK   56  A    between atoms: _142  and  _145
REMARK   57  A    between atoms: _145  and  _146
REMARK   58  A    between atoms: _151  and  _152
REMARK   59  A    between atoms: _154  and  _156
REMARK   60  A    between atoms: _156  and  _157
REMARK   61  A    between atoms: _156  and  _159
REMARK   62  A    between atoms: _159  and  _160
REMARK   63  A    between atoms: _160  and  _161
REMARK   64  A    between atoms: _161  and  _162
REMARK   65  A    between atoms: _171  and  _173
REMARK   66  A    between atoms: _173  and  _174
REMARK   67  A    between atoms: _178  and  _180
REMARK   68  A    between atoms: _180  and  _181
REMARK   69  A    between atoms: _180  and  _183
REMARK   70  A    between atoms: _183  and  _184
REMARK   71  A    between atoms: _186  and  _188
REMARK   72  A    between atoms: _188  and  _189
REMARK   73  A    between atoms: _188  and  _191
REMARK   74  A    between atoms: _191  and  _192
REMARK   75  A    between atoms: _192  and  _193
REMARK   76  A    between atoms: _196  and  _198
REMARK   77  A    between atoms: _198  and  _199
REMARK   78  A    between atoms: _198  and  _201
REMARK   79  A    between atoms: _201  and  _202
REMARK   80  A    between atoms: _202  and  _352
REMARK   81  A    between atoms: _203  and  _205
REMARK   82  A    between atoms: _205  and  _206
REMARK   83  A    between atoms: _205  and  _208
REMARK   84  A    between atoms: _208  and  _209
REMARK   85  A    between atoms: _209  and  _210
REMARK   86  A    between atoms: _210  and  _211
REMARK   87  A    between atoms: _220  and  _222
REMARK   88  A    between atoms: _222  and  _223
REMARK   89  A    between atoms: _222  and  _225
REMARK   90  A    between atoms: _225  and  _226
REMARK   91  A    between atoms: _226  and  _227
REMARK   92  A    between atoms: _230  and  _232
REMARK   93  A    between atoms: _232  and  _233
REMARK   94  A    between atoms: _232  and  _235
REMARK   95  A    between atoms: _235  and  _236
REMARK   96  A    between atoms: _236  and  _237
REMARK   97  A    between atoms: _237  and  _238
REMARK   98  A    between atoms: _247  and  _249
REMARK   99  A    between atoms: _249  and  _250
REMARK  100  A    between atoms: _249  and  _252
REMARK  101  A    between atoms: _252  and  _253
REMARK  102  A    between atoms: _255  and  _257
REMARK  103  A    between atoms: _257  and  _258
REMARK  104  A    between atoms: _257  and  _260
REMARK  105  A    between atoms: _260  and  _261
REMARK  106  A    between atoms: _266  and  _267
REMARK  107  A    between atoms: _269  and  _271
REMARK  108  A    between atoms: _271  and  _272
REMARK  109  A    between atoms: _271  and  _274
REMARK  110  A    between atoms: _274  and  _275
REMARK  111  A    between atoms: _280  and  _282
REMARK  112  A    between atoms: _282  and  _283
REMARK  113  A    between atoms: _282  and  _285
REMARK  114  A    between atoms: _288  and  _290
REMARK  115  A    between atoms: _290  and  _291
REMARK  116  A    between atoms: _290  and  _293
REMARK  117  A    between atoms: _293  and  _294
REMARK  118  A    between atoms: _294  and  _295
REMARK  119  A    between atoms: _295  and  _296
REMARK  120  A    between atoms: _305  and  _307
REMARK  121  A    between atoms: _307  and  _308
REMARK  122  A    between atoms: _307  and  _310
REMARK  123  A    between atoms: _310  and  _311
REMARK  124  A    between atoms: _316  and  _318
REMARK  125  A    between atoms: _318  and  _319
REMARK  126  A    between atoms: _318  and  _321
REMARK  127  A    between atoms: _321  and  _322
REMARK  128  A    between atoms: _325  and  _327
REMARK  129  A    between atoms: _327  and  _328
REMARK  130  A    between atoms: _330  and  _332
REMARK  131  A    between atoms: _332  and  _333
REMARK  132  A    between atoms: _332  and  _335
REMARK  133  A    between atoms: _335  and  _336
REMARK  134  A    between atoms: _346  and  _348
REMARK  135  A    between atoms: _348  and  _349
REMARK  136  A    between atoms: _348  and  _351
REMARK  137  A    between atoms: _351  and  _352
REMARK  138  A    between atoms: _353  and  _355
REMARK  139  A    between atoms: _355  and  _356
REMARK  140  A    between atoms: _355  and  _358
REMARK  141  A    between atoms: _358  and  _359
REMARK  142  A    between atoms: _362  and  _364
REMARK  143  A    between atoms: _364  and  _365
REMARK  144  A    between atoms: _367  and  _369
REMARK  145  A    between atoms: _369  and  _370
REMARK  146  A    between atoms: _369  and  _372
REMARK  147  A    between atoms: _372  and  _373
REMARK  148  A    between atoms: _378  and  _379
REMARK  149  A    between atoms: _381  and  _383
REMARK  150  A    between atoms: _383  and  _384
REMARK  151  A    between atoms: _383  and  _386
REMARK  152  A    between atoms: _386  and  _387
REMARK  153  A    between atoms: _387  and  _388
REMARK  154  A    between atoms: _388  and  _389
REMARK  155  A    between atoms: _398  and  _400
REMARK  156  A    between atoms: _400  and  _401
REMARK  157  A    between atoms: _400  and  _403
REMARK  158  A    between atoms: _403  and  _404
REMARK  159  A    between atoms: _407  and  _409
REMARK  160  A    between atoms: _409  and  _410
REMARK  161  A    between atoms: _409  and  _412
REMARK  162  A    between atoms: _412  and  _413
REMARK  163  A    between atoms: _413  and  _414
REMARK  164  A    between atoms: _414  and  _415
REMARK  165  A    between atoms: _415  and  _416
REMARK  166  A    between atoms: _420  and  _422
REMARK  167  A    between atoms: _422  and  _423
REMARK  168  A    between atoms: _425  and  _427
REMARK  169  A    between atoms: _427  and  _428
REMARK  170  A    between atoms: _431  and  _433
REMARK  171  A    between atoms: _433  and  _434
REMARK  172  A    between atoms: _433  and  _436
REMARK  173  A    between atoms: _436  and  _437
REMARK  174  A    between atoms: _442  and  _444
REMARK  175  A    between atoms: _444  and  _445
REMARK  176  A    between atoms: _448  and  _450
REMARK  177  A    between atoms: _450  and  _451
REMARK  178  A    between atoms: _454  and  _455
REMARK  179  A    between atoms: _460  and  _462
REMARK  180  A    between atoms: _462  and  _463
REMARK  181  A    between atoms: _462  and  _465
REMARK  182  A    between atoms: _465  and  _466
REMARK  183  A    between atoms: _469  and  _471
REMARK  184  A    between atoms: _471  and  _472
REMARK  185  A    between atoms: _471  and  _474
REMARK  186  A    between atoms: _474  and  _475
REMARK  187  A    between atoms: _485  and  _487
REMARK  188  A    between atoms: _487  and  _488
REMARK  189  A    between atoms: _487  and  _490
REMARK  190  A    between atoms: _490  and  _491
REMARK  191  A    between atoms: _497  and  _498
REMARK  192  A    between atoms: _503  and  _505
REMARK  193  A    between atoms: _505  and  _506
REMARK  194  A    between atoms: _505  and  _508
REMARK  195  A    between atoms: _508  and  _509
REMARK  196  A    between atoms: _514  and  _516
REMARK  197  A    between atoms: _516  and  _517
REMARK  198  A    between atoms: _516  and  _519
REMARK  199  A    between atoms: _522  and  _524
REMARK  200  A    between atoms: _524  and  _525
REMARK  201  A    between atoms: _524  and  _527
REMARK  202  A    between atoms: _527  and  _528
REMARK  203  A    between atoms: _528  and  _529
REMARK  204  A    between atoms: _535  and  _536
REMARK  205  A    between atoms: _541  and  _543
REMARK  206  A    between atoms: _543  and  _544
REMARK  207  A    between atoms: _543  and  _546
REMARK  208  A    between atoms: _546  and  _547
REMARK  209  A    between atoms: _550  and  _552
REMARK  210  A    between atoms: _552  and  _553
REMARK  211  A    between atoms: _552  and  _555
REMARK  212  A    between atoms: _555  and  _556
REMARK  213  A    between atoms: _558  and  _560
REMARK  214  A    between atoms: _560  and  _561
REMARK  215  A    between atoms: _560  and  _563
REMARK  216  A    between atoms: _563  and  _564
REMARK  217  A    between atoms: _569  and  _570
REMARK  218  A    between atoms: _572  and  _574
REMARK  219  A    between atoms: _574  and  _575
REMARK  220  A    between atoms: _574  and  _577
REMARK  221  A    between atoms: _577  and  _578
REMARK  222  A    between atoms: _588  and  _590
REMARK  223  A    between atoms: _590  and  _591
REMARK  224  A    between atoms: _593  and  _595
REMARK  225  A    between atoms: _595  and  _596
REMARK  226  A    between atoms: _599  and  _601
REMARK  227  A    between atoms: _601  and  _602
REMARK  228  A    between atoms: _601  and  _604
REMARK  229  A    between atoms: _604  and  _605
REMARK  230  A    between atoms: _610  and  _612
REMARK  231  A    between atoms: _612  and  _613
REMARK  232  A    between atoms: _616  and  _618
REMARK  233  A    between atoms: _618  and  _619
REMARK  234  A    between atoms: _622  and  _623
REMARK  235  A    between atoms: _628  and  _630
REMARK  236  A    between atoms: _630  and  _631
REMARK  237  A    between atoms: _630  and  _633
REMARK  238  A    between atoms: _633  and  _634
REMARK  239  A    between atoms: _637  and  _639
REMARK  240  A    between atoms: _639  and  _640
REMARK  241  A    between atoms: _639  and  _642
REMARK  242  A    between atoms: _642  and  _643
REMARK  243  A    between atoms: _653  and  _655
REMARK  244  A    between atoms: _655  and  _656
REMARK  245  A    between atoms: _655  and  _658
REMARK  246  A    between atoms: _658  and  _659
REMARK  247  A    between atoms: _664  and  _666
REMARK  248  A    between atoms: _666  and  _667
REMARK  249  A    between atoms: _666  and  _669
REMARK  250  A    between atoms: _669  and  _670
REMARK  251  A    between atoms: _673  and  _675
REMARK  252  A    between atoms: _675  and  _676
REMARK  253  A    between atoms: _675  and  _678
REMARK  254  A    between atoms: _678  and  _679
REMARK  255  A    between atoms: _679  and  _680
REMARK  256  A    between atoms: _683  and  _685
REMARK  257  A    between atoms: _685  and  _686
REMARK  258  A    between atoms: _685  and  _688
REMARK  259  A    between atoms: _688  and  _689
REMARK  260  A    between atoms: _689  and  _690
REMARK  261  A    between atoms: _690  and  _691
REMARK  262  A    between atoms: _691  and  _692
REMARK  263  A    between atoms: _696  and  _698
REMARK  264  A    between atoms: _698  and  _699
REMARK  265  A    between atoms: _698  and  _701
REMARK  266  A    between atoms: _701  and  _702
REMARK  267  A    between atoms: _707  and  _709
REMARK  268  A    between atoms: _709  and  _710
REMARK  269  A    between atoms: _709  and  _712
REMARK  270  A    between atoms: _712  and  _713
REMARK  271  A    between atoms: _713  and  _714
REMARK  272  A    between atoms: _714  and  _715
REMARK  273  A    between atoms: _724  and  _726
REMARK  274  A    between atoms: _726  and  _727
REMARK  275  A    between atoms: _726  and  _729
REMARK  276  A    between atoms: _729  and  _730
REMARK  277  A    between atoms: _733  and  _735
REMARK  278  A    between atoms: _735  and  _736
REMARK  279  A    between atoms: _735  and  _738
REMARK  280  A    between atoms: _741  and  _743
REMARK  281  A    between atoms: _743  and  _744
REMARK  282  A    between atoms: _743  and  _746
REMARK  283  A    between atoms: _746  and  _747
REMARK  284  A    between atoms: _747  and  _748
REMARK  285  A    between atoms: _754  and  _755
REMARK  286  A    between atoms: _760  and  _762
REMARK  287  A    between atoms: _762  and  _763
REMARK  288  A    between atoms: _762  and  _765
REMARK  289  A    between atoms: _765  and  _766
REMARK  290  A    between atoms: _769  and  _771
REMARK  291  A    between atoms: _771  and  _772
REMARK  292  A    between atoms: _771  and  _774
REMARK  293  A    between atoms: _774  and  _775
REMARK  294  A    between atoms: _775  and  _776
REMARK  295  A    between atoms: _776  and  _777
REMARK  296  A    between atoms: _786  and  _788
REMARK  297  A    between atoms: _788  and  _789
REMARK                            x       y       z     vdW  Elec       q    Type
REMARK                         _______ _______ _______ _____ _____    ______ ____
ROOT
ATOM      1  C   GLY A   5      16.554  26.857 -22.043  0.00  0.00    +0.246 C 
ATOM      2  N   PRO A   6      17.636  26.147 -22.418  0.00  0.00    -0.272 N 
ATOM      3  CD  PRO A   6      18.164  25.005 -21.648  0.00  0.00    +0.094 C 
ATOM      4  CG  PRO A   6      18.890  24.227 -22.710  0.00  0.00    +0.024 C 
ATOM      5  CB  PRO A   6      19.559  25.337 -23.481  0.00  0.00    +0.031 C 
ATOM      6  CA  PRO A   6      18.457  26.383 -23.615  0.00  0.00    +0.152 C 
ATOM      7  O   GLY A   5      16.126  27.814 -22.692  0.00  0.00    -0.273 OA
ENDROOT
BRANCH   6   8
ATOM      8  C   PRO A   6      17.715  26.287 -24.949  0.00  0.00    +0.241 C 
ATOM      9  N   THR A   7      16.574  25.612 -24.953  0.00  0.00    -0.295 N 
ATOM     10  H   THR A   7      16.232  25.170 -24.076  0.00  0.00    +0.150 HD
ATOM     11  O   PRO A   6      18.160  26.836 -25.959  0.00  0.00    -0.273 OA
BRANCH   9  12
ATOM     12  CA  THR A   7      15.793  25.485 -26.183  0.00  0.00    +0.176 C 
BRANCH  12  13
ATOM     13  C   THR A   7      14.883  26.696 -26.432  0.00  0.00    +0.243 C 
ATOM     14  N   TRP A   8      14.204  27.170 -25.390  0.00  0.00    -0.297 N 
ATOM     15  H   TRP A   8      14.321  26.726 -24.457  0.00  0.00    +0.150 HD
ATOM     16  O   THR A   7      14.811  27.201 -27.555  0.00  0.00    -0.273 OA
BRANCH  14  17
ATOM     17  CA  TRP A   8      13.298  28.303 -25.537  0.00  0.00    +0.153 C 
BRANCH  17  18
ATOM     18  C   TRP A   8      13.868  29.681 -25.187  0.00  0.00    +0.241 C 
ATOM     19  N   ASN A   9      14.984  29.743 -24.463  0.00  0.00    -0.298 N 
ATOM     20  H   ASN A   9      15.448  28.869 -24.143  0.00  0.00    +0.150 HD
ATOM     21  O   TRP A   8      13.303  30.694 -25.601  0.00  0.00    -0.273 OA
BRANCH  19  22
ATOM     22  CA  ASN A   9      15.553  31.041 -24.120  0.00  0.00    +0.146 C 
BRANCH  22  23
ATOM     23  C   ASN A   9      15.974  31.843 -25.355  0.00  0.00    +0.227 C 
ATOM     24  O   ASN A   9      15.632  33.016 -25.491  0.00  0.00    -0.286 OA
ENDBRANCH  22  23
BRANCH  22  25
ATOM     25  CB  ASN A   9      16.750  30.887 -23.176  0.00  0.00    +0.112 C 
BRANCH  25  26
ATOM     26  CG  ASN A   9      16.341  30.522 -21.756  0.00  0.00    +0.222 C 
ATOM     27  ND2 ASN A   9      17.274  29.974 -20.990  0.00  0.00    -0.329 N 
ATOM     28 HD21 ASN A   9      17.055  29.717 -20.006  0.00  0.00    +0.145 HD
ATOM     29 HD22 ASN A   9      18.225  29.801 -21.373  0.00  0.00    +0.145 HD
ATOM     30  OD1 ASN A   9      15.209  30.745 -21.351  0.00  0.00    -0.275 OA
ENDBRANCH  25  26
ENDBRANCH  22  25
ENDBRANCH  19  22
ENDBRANCH  17  18
BRANCH  17  31
ATOM     31  CB  TRP A   8      12.011  28.045 -24.740  0.00  0.00    +0.057 C 
BRANCH  31  32
ATOM     32  CG  TRP A   8      11.281  26.829 -25.225  0.00  0.00    -0.002 A 
ATOM     33  CD1 TRP A   8      11.528  25.536 -24.879  0.00  0.00    +0.068 A 
ATOM     34  NE1 TRP A   8      10.733  24.691 -25.604  0.00  0.00    -0.352 N 
ATOM     35  HE1 TRP A   8      10.729  23.654 -25.531  0.00  0.00    +0.166 HD
ATOM     36  CE2 TRP A   8       9.944  25.433 -26.441  0.00  0.00    +0.056 A 
ATOM     37  CZ2 TRP A   8       8.980  25.027 -27.367  0.00  0.00    +0.017 A 
ATOM     38  CH2 TRP A   8       8.337  26.005 -28.080  0.00  0.00    +0.001 A 
ATOM     39  CZ3 TRP A   8       8.634  27.368 -27.887  0.00  0.00    +0.000 A 
ATOM     40  CE3 TRP A   8       9.591  27.768 -26.965  0.00  0.00    +0.001 A 
ATOM     41  CD2 TRP A   8      10.262  26.788 -26.225  0.00  0.00    +0.013 A 
ENDBRANCH  31  32
ENDBRANCH  17  31
ENDBRANCH  14  17
ENDBRANCH  12  13
BRANCH  12  42
ATOM     42  CB  THR A   7      14.928  24.208 -26.153  0.00  0.00    +0.137 C 
ATOM     43  CG2 THR A   7      14.158  24.045 -27.459  0.00  0.00    +0.034 C 
BRANCH  42  44
ATOM     44  OG1 THR A   7      15.781  23.071 -25.962  0.00  0.00    -0.382 OA
ATOM     45  HG1 THR A   7      15.232  22.248 -25.942  0.00  0.00    +0.210 HD
ENDBRANCH  42  44
ENDBRANCH  12  42
ENDBRANCH   9  12
ENDBRANCH   6   8
BRANCH   1  46
ATOM     46  CA  GLY A   5      15.857  26.447 -20.771  0.00  0.00    +0.176 C 
BRANCH  46  48
ATOM     47  C   ALA A   4      13.641  27.352 -20.524  0.00  0.00    +0.241 C 
ATOM     48  N   GLY A   5      14.940  27.453 -20.268  0.00  0.00    -0.295 N 
ATOM     49  H   GLY A   5      15.300  28.252 -19.708  0.00  0.00    +0.150 HD
ATOM     50  O   ALA A   4      13.174  26.433 -21.193  0.00  0.00    -0.273 OA
BRANCH  47  51
ATOM     51  CA  ALA A   4      12.720  28.442 -19.955  0.00  0.00    +0.149 C 
ATOM     52  CB  ALA A   4      11.622  28.790 -20.982  0.00  0.00    +0.031 C 
BRANCH  51  55
ATOM     53  C   HIS A   3      12.915  30.267 -18.385  0.00  0.00    +0.241 C 
ATOM     54  O   HIS A   3      11.926  29.855 -17.777  0.00  0.00    -0.273 OA
ATOM     55  N   ALA A   4      13.373  29.669 -19.484  0.00  0.00    -0.297 N 
ATOM     56  H   ALA A   4      14.183  30.067 -20.001  0.00  0.00    +0.150 HD
BRANCH  53  57
ATOM     57  CA  HIS A   3      13.610  31.534 -17.910  0.00  0.00    +0.155 C 
BRANCH  57  60
ATOM     58  C   ALA A   2      15.868  32.402 -17.892  0.00  0.00    +0.241 C 
ATOM     59  O   ALA A   2      15.783  32.685 -16.689  0.00  0.00    -0.273 OA
ATOM     60  N   HIS A   3      14.880  31.815 -18.560  0.00  0.00    -0.297 N 
ATOM     61  H   HIS A   3      15.017  31.554 -19.557  0.00  0.00    +0.150 HD
BRANCH  58  62
ATOM     62  CA  ALA A   2      17.145  32.707 -18.677  0.00  0.00    +0.149 C 
ATOM     63  CB  ALA A   2      18.319  32.864 -17.726  0.00  0.00    +0.031 C 
BRANCH  62  65
ATOM     64  C   GLY A   1      17.090  34.206 -20.623  0.00  0.00    +0.240 C 
ATOM     65  N   ALA A   2      16.872  33.975 -19.333  0.00  0.00    -0.297 N 
ATOM     66  H   ALA A   2      16.482  34.749 -18.757  0.00  0.00    +0.150 HD
ATOM     67  O   GLY A   1      17.603  33.387 -21.382  0.00  0.00    -0.274 OA
BRANCH  64  68
ATOM     68  CA  GLY A   1      16.701  35.594 -21.108  0.00  0.00    +0.169 C 
BRANCH  68  69
ATOM     69  N   GLY A   1      16.975  35.796 -22.521  0.00  0.00    -0.236 NA
ATOM     70  H   GLY A   1      16.278  35.495 -23.232  0.00  0.00    +0.142 HD
ENDBRANCH  68  69
ENDBRANCH  64  68
ENDBRANCH  62  65
ENDBRANCH  58  62
ENDBRANCH  57  60
BRANCH  57  71
ATOM     71  CB  HIS A   3      12.667  32.711 -18.148  0.00  0.00    +0.076 C 
BRANCH  71  72
ATOM     72  CG  HIS A   3      12.477  33.025 -19.602  0.00  0.00    +0.082 A 
ATOM     73  ND1 HIS A   3      11.591  32.337 -20.401  0.00  0.00    -0.227 NA
ATOM     74  CE1 HIS A   3      11.728  32.732 -21.653  0.00  0.00    +0.199 A 
ATOM     75  NE2 HIS A   3      12.669  33.659 -21.695  0.00  0.00    -0.221 NA
ATOM     76  CD2 HIS A   3      13.148  33.866 -20.425  0.00  0.00    +0.115 A 
ENDBRANCH  71  72
ENDBRANCH  57  71
ENDBRANCH  53  57
ENDBRANCH  51  55
ENDBRANCH  47  51
ENDBRANCH  46  48
ENDBRANCH   1  46
TORSDOF 25
REMARK  Name = ../refined-set-2016/3o4k/3o4k_pocket.pdb
REMARK  297 active torsions:
REMARK  status: ('A' for Active; 'I' for Inactive)
REMARK    1  A    between atoms: _1  and  _3
REMARK    2  A    between atoms: _3  and  _4
REMARK    3  A    between atoms: _3  and  _6
REMARK    4  A    between atoms: _6  and  _7
REMARK    5  A    between atoms: _7  and  _8
REMARK    6  A    between atoms: _8  and  _9
REMARK    7  A    between atoms: _18  and  _20
REMARK    8  A    between atoms: _20  and  _21
REMARK    9  A    between atoms: _20  and  _23
REMARK   10  A    between atoms: _23  and  _24
REMARK   11  A    between atoms: _29  and  _30
REMARK   12  A    between atoms: _32  and  _34
REMARK   13  A    between atoms: _34  and  _35
REMARK   14  A    between atoms: _34  and  _37
REMARK   15  A    between atoms: _37  and  _38
REMARK   16  A    between atoms: _48  and  _50
REMARK   17  A    between atoms: _50  and  _51
REMARK   18  A    between atoms: _50  and  _53
REMARK   19  A    between atoms: _53  and  _54
REMARK   20  A    between atoms: _54  and  _55
REMARK   21  A    between atoms: _55  and  _56
REMARK   22  A    between atoms: _65  and  _67
REMARK   23  A    between atoms: _67  and  _68
REMARK   24  A    between atoms: _67  and  _70
REMARK   25  A    between atoms: _70  and  _71
REMARK   26  A    between atoms: _73  and  _75
REMARK   27  A    between atoms: _75  and  _76
REMARK   28  A    between atoms: _75  and  _78
REMARK   29  A    between atoms: _78  and  _79
REMARK   30  A    between atoms: _84  and  _86
REMARK   31  A    between atoms: _86  and  _87
REMARK   32  A    between atoms: _86  and  _89
REMARK   33  A    between atoms: _89  and  _90
REMARK   34  A    between atoms: _95  and  _96
REMARK   35  A    between atoms: _98  and  _100
REMARK   36  A    between atoms: _100  and  _101
REMARK   37  A    between atoms: _100  and  _103
REMARK   38  A    between atoms: _103  and  _104
REMARK   39  A    between atoms: _104  and  _105
REMARK   40  A    between atoms: _108  and  _110
REMARK   41  A    between atoms: _110  and  _111
REMARK   42  A    between atoms: _110  and  _113
REMARK   43  A    between atoms: _116  and  _118
REMARK   44  A    between atoms: _118  and  _119
REMARK   45  A    between atoms: _118  and  _121
REMARK   46  A    between atoms: _121  and  _122
REMARK   47  A    between atoms: _122  and  _123
REMARK   48  A    between atoms: _123  and  _124
REMARK   49  A    between atoms: _124  and  _125
REMARK   50  A    between atoms: _129  and  _131
REMARK   51  A    between atoms: _131  and  _132
REMARK   52  A    between atoms: _131  and  _134
REMARK   53  A    between atoms: _134  and  _135
REMARK   54  A    between atoms: _140  and  _142
REMARK   55  A    between atoms: _142  and  _143
REMARK   56  A    between atoms: _142  and  _145
REMARK   57  A    between atoms: _145  and  _146
REMARK   58  A    between atoms: _151  and  _152
REMARK   59  A    between atoms: _154  and  _156
REMARK   60  A    between atoms: _156  and  _157
REMARK   61  A    between atoms: _156  and  _159
REMARK   62  A    between atoms: _159  and  _160
REMARK   63  A    between atoms: _160  and  _161
REMARK   64  A    between atoms: _161  and  _162
REMARK   65  A    between atoms: _171  and  _173
REMARK   66  A    between atoms: _173  and  _174
REMARK   67  A    between atoms: _178  and  _180
REMARK   68  A    between atoms: _180  and  _181
REMARK   69  A    between atoms: _180  and  _183
REMARK   70  A    between atoms: _183  and  _184
REMARK   71  A    between atoms: _186  and  _188
REMARK   72  A    between atoms: _188  and  _189
REMARK   73  A    between atoms: _188  and  _191
REMARK   74  A    between atoms: _191  and  _192
REMARK   75  A    between atoms: _192  and  _193
REMARK   76  A    between atoms: _196  and  _198
REMARK   77  A    between atoms: _198  and  _199
REMARK   78  A    between atoms: _198  and  _201
REMARK   79  A    between atoms: _201  and  _202
REMARK   80  A    between atoms: _202  and  _352
REMARK   81  A    between atoms: _203  and  _205
REMARK   82  A    between atoms: _205  and  _206
REMARK   83  A    between atoms: _205  and  _208
REMARK   84  A    between atoms: _208  and  _209
REMARK   85  A    between atoms: _209  and  _210
REMARK   86  A    between atoms: _210  and  _211
REMARK   87  A    between atoms: _220  and  _222
REMARK   88  A    between atoms: _222  and  _223
REMARK   89  A    between atoms: _222  and  _225
REMARK   90  A    between atoms: _225  and  _226
REMARK   91  A    between atoms: _226  and  _227
REMARK   92  A    between atoms: _230  and  _232
REMARK   93  A    between atoms: _232  and  _233
REMARK   94  A    between atoms: _232  and  _235
REMARK   95  A    between atoms: _235  and  _236
REMARK   96  A    between atoms: _236  and  _237
REMARK   97  A    between atoms: _237  and  _238
REMARK   98  A    between atoms: _247  and  _249
REMARK   99  A    between atoms: _249  and  _250
REMARK  100  A    between atoms: _249  and  _252
REMARK  101  A    between atoms: _252  and  _253
REMARK  102  A    between atoms: _255  and  _257
REMARK  103  A    between atoms: _257  and  _258
REMARK  104  A    between atoms: _257  and  _260
REMARK  105  A    between atoms: _260  and  _261
REMARK  106  A    between atoms: _266  and  _267
REMARK  107  A    between atoms: _269  and  _271
REMARK  108  A    between atoms: _271  and  _272
REMARK  109  A    between atoms: _271  and  _274
REMARK  110  A    between atoms: _274  and  _275
REMARK  111  A    between atoms: _280  and  _282
REMARK  112  A    between atoms: _282  and  _283
REMARK  113  A    between atoms: _282  and  _285
REMARK  114  A    between atoms: _288  and  _290
REMARK  115  A    between atoms: _290  and  _291
REMARK  116  A    between atoms: _290  and  _293
REMARK  117  A    between atoms: _293  and  _294
REMARK  118  A    between atoms: _294  and  _295
REMARK  119  A    between atoms: _295  and  _296
REMARK  120  A    between atoms: _305  and  _307
REMARK  121  A    between atoms: _307  and  _308
REMARK  122  A    between atoms: _307  and  _310
REMARK  123  A    between atoms: _310  and  _311
REMARK  124  A    between atoms: _316  and  _318
REMARK  125  A    between atoms: _318  and  _319
REMARK  126  A    between atoms: _318  and  _321
REMARK  127  A    between atoms: _321  and  _322
REMARK  128  A    between atoms: _325  and  _327
REMARK  129  A    between atoms: _327  and  _328
REMARK  130  A    between atoms: _330  and  _332
REMARK  131  A    between atoms: _332  and  _333
REMARK  132  A    between atoms: _332  and  _335
REMARK  133  A    between atoms: _335  and  _336
REMARK  134  A    between atoms: _346  and  _348
REMARK  135  A    between atoms: _348  and  _349
REMARK  136  A    between atoms: _348  and  _351
REMARK  137  A    between atoms: _351  and  _352
REMARK  138  A    between atoms: _353  and  _355
REMARK  139  A    between atoms: _355  and  _356
REMARK  140  A    between atoms: _355  and  _358
REMARK  141  A    between atoms: _358  and  _359
REMARK  142  A    between atoms: _362  and  _364
REMARK  143  A    between atoms: _364  and  _365
REMARK  144  A    between atoms: _367  and  _369
REMARK  145  A    between atoms: _369  and  _370
REMARK  146  A    between atoms: _369  and  _372
REMARK  147  A    between atoms: _372  and  _373
REMARK  148  A    between atoms: _378  and  _379
REMARK  149  A    between atoms: _381  and  _383
REMARK  150  A    between atoms: _383  and  _384
REMARK  151  A    between atoms: _383  and  _386
REMARK  152  A    between atoms: _386  and  _387
REMARK  153  A    between atoms: _387  and  _388
REMARK  154  A    between atoms: _388  and  _389
REMARK  155  A    between atoms: _398  and  _400
REMARK  156  A    between atoms: _400  and  _401
REMARK  157  A    between atoms: _400  and  _403
REMARK  158  A    between atoms: _403  and  _404
REMARK  159  A    between atoms: _407  and  _409
REMARK  160  A    between atoms: _409  and  _410
REMARK  161  A    between atoms: _409  and  _412
REMARK  162  A    between atoms: _412  and  _413
REMARK  163  A    between atoms: _413  and  _414
REMARK  164  A    between atoms: _414  and  _415
REMARK  165  A    between atoms: _415  and  _416
REMARK  166  A    between atoms: _420  and  _422
REMARK  167  A    between atoms: _422  and  _423
REMARK  168  A    between atoms: _425  and  _427
REMARK  169  A    between atoms: _427  and  _428
REMARK  170  A    between atoms: _431  and  _433
REMARK  171  A    between atoms: _433  and  _434
REMARK  172  A    between atoms: _433  and  _436
REMARK  173  A    between atoms: _436  and  _437
REMARK  174  A    between atoms: _442  and  _444
REMARK  175  A    between atoms: _444  and  _445
REMARK  176  A    between atoms: _448  and  _450
REMARK  177  A    between atoms: _450  and  _451
REMARK  178  A    between atoms: _454  and  _455
REMARK  179  A    between atoms: _460  and  _462
REMARK  180  A    between atoms: _462  and  _463
REMARK  181  A    between atoms: _462  and  _465
REMARK  182  A    between atoms: _465  and  _466
REMARK  183  A    between atoms: _469  and  _471
REMARK  184  A    between atoms: _471  and  _472
REMARK  185  A    between atoms: _471  and  _474
REMARK  186  A    between atoms: _474  and  _475
REMARK  187  A    between atoms: _485  and  _487
REMARK  188  A    between atoms: _487  and  _488
REMARK  189  A    between atoms: _487  and  _490
REMARK  190  A    between atoms: _490  and  _491
REMARK  191  A    between atoms: _497  and  _498
REMARK  192  A    between atoms: _503  and  _505
REMARK  193  A    between atoms: _505  and  _506
REMARK  194  A    between atoms: _505  and  _508
REMARK  195  A    between atoms: _508  and  _509
REMARK  196  A    between atoms: _514  and  _516
REMARK  197  A    between atoms: _516  and  _517
REMARK  198  A    between atoms: _516  and  _519
REMARK  199  A    between atoms: _522  and  _524
REMARK  200  A    between atoms: _524  and  _525
REMARK  201  A    between atoms: _524  and  _527
REMARK  202  A    between atoms: _527  and  _528
REMARK  203  A    between atoms: _528  and  _529
REMARK  204  A    between atoms: _535  and  _536
REMARK  205  A    between atoms: _541  and  _543
REMARK  206  A    between atoms: _543  and  _544
REMARK  207  A    between atoms: _543  and  _546
REMARK  208  A    between atoms: _546  and  _547
REMARK  209  A    between atoms: _550  and  _552
REMARK  210  A    between atoms: _552  and  _553
REMARK  211  A    between atoms: _552  and  _555
REMARK  212  A    between atoms: _555  and  _556
REMARK  213  A    between atoms: _558  and  _560
REMARK  214  A    between atoms: _560  and  _561
REMARK  215  A    between atoms: _560  and  _563
REMARK  216  A    between atoms: _563  and  _564
REMARK  217  A    between atoms: _569  and  _570
REMARK  218  A    between atoms: _572  and  _574
REMARK  219  A    between atoms: _574  and  _575
REMARK  220  A    between atoms: _574  and  _577
REMARK  221  A    between atoms: _577  and  _578
REMARK  222  A    between atoms: _588  and  _590
REMARK  223  A    between atoms: _590  and  _591
REMARK  224  A    between atoms: _593  and  _595
REMARK  225  A    between atoms: _595  and  _596
REMARK  226  A    between atoms: _599  and  _601
REMARK  227  A    between atoms: _601  and  _602
REMARK  228  A    between atoms: _601  and  _604
REMARK  229  A    between atoms: _604  and  _605
REMARK  230  A    between atoms: _610  and  _612
REMARK  231  A    between atoms: _612  and  _613
REMARK  232  A    between atoms: _616  and  _618
REMARK  233  A    between atoms: _618  and  _619
REMARK  234  A    between atoms: _622  and  _623
REMARK  235  A    between atoms: _628  and  _630
REMARK  236  A    between atoms: _630  and  _631
REMARK  237  A    between atoms: _630  and  _633
REMARK  238  A    between atoms: _633  and  _634
REMARK  239  A    between atoms: _637  and  _639
REMARK  240  A    between atoms: _639  and  _640
REMARK  241  A    between atoms: _639  and  _642
REMARK  242  A    between atoms: _642  and  _643
REMARK  243  A    between atoms: _653  and  _655
REMARK  244  A    between atoms: _655  and  _656
REMARK  245  A    between atoms: _655  and  _658
REMARK  246  A    between atoms: _658  and  _659
REMARK  247  A    between atoms: _664  and  _666
REMARK  248  A    between atoms: _666  and  _667
REMARK  249  A    between atoms: _666  and  _669
REMARK  250  A    between atoms: _669  and  _670
REMARK  251  A    between atoms: _673  and  _675
REMARK  252  A    between atoms: _675  and  _676
REMARK  253  A    between atoms: _675  and  _678
REMARK  254  A    between atoms: _678  and  _679
REMARK  255  A    between atoms: _679  and  _680
REMARK  256  A    between atoms: _683  and  _685
REMARK  257  A    between atoms: _685  and  _686
REMARK  258  A    between atoms: _685  and  _688
REMARK  259  A    between atoms: _688  and  _689
REMARK  260  A    between atoms: _689  and  _690
REMARK  261  A    between atoms: _690  and  _691
REMARK  262  A    between atoms: _691  and  _692
REMARK  263  A    between atoms: _696  and  _698
REMARK  264  A    between atoms: _698  and  _699
REMARK  265  A    between atoms: _698  and  _701
REMARK  266  A    between atoms: _701  and  _702
REMARK  267  A    between atoms: _707  and  _709
REMARK  268  A    between atoms: _709  and  _710
REMARK  269  A    between atoms: _709  and  _712
REMARK  270  A    between atoms: _712  and  _713
REMARK  271  A    between atoms: _713  and  _714
REMARK  272  A    between atoms: _714  and  _715
REMARK  273  A    between atoms: _724  and  _726
REMARK  274  A    between atoms: _726  and  _727
REMARK  275  A    between atoms: _726  and  _729
REMARK  276  A    between atoms: _729  and  _730
REMARK  277  A    between atoms: _733  and  _735
REMARK  278  A    between atoms: _735  and  _736
REMARK  279  A    between atoms: _735  and  _738
REMARK  280  A    between atoms: _741  and  _743
REMARK  281  A    between atoms: _743  and  _744
REMARK  282  A    between atoms: _743  and  _746
REMARK  283  A    between atoms: _746  and  _747
REMARK  284  A    between atoms: _747  and  _748
REMARK  285  A    between atoms: _754  and  _755
REMARK  286  A    between atoms: _760  and  _762
REMARK  287  A    between atoms: _762  and  _763
REMARK  288  A    between atoms: _762  and  _765
REMARK  289  A    between atoms: _765  and  _766
REMARK  290  A    between atoms: _769  and  _771
REMARK  291  A    between atoms: _771  and  _772
REMARK  292  A    between atoms: _771  and  _774
REMARK  293  A    between atoms: _774  and  _775
REMARK  294  A    between atoms: _775  and  _776
REMARK  295  A    between atoms: _776  and  _777
REMARK  296  A    between atoms: _786  and  _788
REMARK  297  A    between atoms: _788  and  _789
REMARK                            x       y       z     vdW  Elec       q    Type
REMARK                         _______ _______ _______ _____ _____    ______ ____
ROOT
ATOM      1  CA  ILE A   1      13.769  32.065 -29.263  0.00  0.00    +0.133 C 
ENDROOT
BRANCH   1   2
ATOM      2  N   ILE A   1      14.840  31.806 -28.292  0.00  0.00    -0.239 NA
ATOM      3  H   ILE A   1      14.631  31.268 -27.427  0.00  0.00    +0.142 HD
ENDBRANCH   1   2
BRANCH   1   4
ATOM      4  C   ILE A   1      12.459  32.609 -28.667  0.00  0.00    +0.224 C 
ATOM      5  O   ILE A   1      11.428  32.591 -29.336  0.00  0.00    -0.287 OA
ENDBRANCH   1   4
BRANCH   1   6
ATOM      6  CB  ILE A   1      13.389  30.785 -30.063  0.00  0.00    +0.023 C 
ATOM      7  CG2 ILE A   1      14.566  30.279 -30.884  0.00  0.00    +0.002 C 
BRANCH   6   8
ATOM      8  CG1 ILE A   1      12.959  29.686 -29.099  0.00  0.00    +0.002 C 
ATOM      9  CD1 ILE A   1      12.366  28.484 -29.791  0.00  0.00    +0.000 C 
ENDBRANCH   6   8
ENDBRANCH   1   6
TORSDOF 4
REMARK  Name = ../refined-set-2016/3o4k/3o4k_pocket.pdb
REMARK  297 active torsions:
REMARK  status: ('A' for Active; 'I' for Inactive)
REMARK    1  A    between atoms: _1  and  _3
REMARK    2  A    between atoms: _3  and  _4
REMARK    3  A    between atoms: _3  and  _6
REMARK    4  A    between atoms: _6  and  _7
REMARK    5  A    between atoms: _7  and  _8
REMARK    6  A    between atoms: _8  and  _9
REMARK    7  A    between atoms: _18  and  _20
REMARK    8  A    between atoms: _20  and  _21
REMARK    9  A    between atoms: _20  and  _23
REMARK   10  A    between atoms: _23  and  _24
REMARK   11  A    between atoms: _29  and  _30
REMARK   12  A    between atoms: _32  and  _34
REMARK   13  A    between atoms: _34  and  _35
REMARK   14  A    between atoms: _34  and  _37
REMARK   15  A    between atoms: _37  and  _38
REMARK   16  A    between atoms: _48  and  _50
REMARK   17  A    between atoms: _50  and  _51
REMARK   18  A    between atoms: _50  and  _53
REMARK   19  A    between atoms: _53  and  _54
REMARK   20  A    between atoms: _54  and  _55
REMARK   21  A    between atoms: _55  and  _56
REMARK   22  A    between atoms: _65  and  _67
REMARK   23  A    between atoms: _67  and  _68
REMARK   24  A    between atoms: _67  and  _70
REMARK   25  A    between atoms: _70  and  _71
REMARK   26  A    between atoms: _73  and  _75
REMARK   27  A    between atoms: _75  and  _76
REMARK   28  A    between atoms: _75  and  _78
REMARK   29  A    between atoms: _78  and  _79
REMARK   30  A    between atoms: _84  and  _86
REMARK   31  A    between atoms: _86  and  _87
REMARK   32  A    between atoms: _86  and  _89
REMARK   33  A    between atoms: _89  and  _90
REMARK   34  A    between atoms: _95  and  _96
REMARK   35  A    between atoms: _98  and  _100
REMARK   36  A    between atoms: _100  and  _101
REMARK   37  A    between atoms: _100  and  _103
REMARK   38  A    between atoms: _103  and  _104
REMARK   39  A    between atoms: _104  and  _105
REMARK   40  A    between atoms: _108  and  _110
REMARK   41  A    between atoms: _110  and  _111
REMARK   42  A    between atoms: _110  and  _113
REMARK   43  A    between atoms: _116  and  _118
REMARK   44  A    between atoms: _118  and  _119
REMARK   45  A    between atoms: _118  and  _121
REMARK   46  A    between atoms: _121  and  _122
REMARK   47  A    between atoms: _122  and  _123
REMARK   48  A    between atoms: _123  and  _124
REMARK   49  A    between atoms: _124  and  _125
REMARK   50  A    between atoms: _129  and  _131
REMARK   51  A    between atoms: _131  and  _132
REMARK   52  A    between atoms: _131  and  _134
REMARK   53  A    between atoms: _134  and  _135
REMARK   54  A    between atoms: _140  and  _142
REMARK   55  A    between atoms: _142  and  _143
REMARK   56  A    between atoms: _142  and  _145
REMARK   57  A    between atoms: _145  and  _146
REMARK   58  A    between atoms: _151  and  _152
REMARK   59  A    between atoms: _154  and  _156
REMARK   60  A    between atoms: _156  and  _157
REMARK   61  A    between atoms: _156  and  _159
REMARK   62  A    between atoms: _159  and  _160
REMARK   63  A    between atoms: _160  and  _161
REMARK   64  A    between atoms: _161  and  _162
REMARK   65  A    between atoms: _171  and  _173
REMARK   66  A    between atoms: _173  and  _174
REMARK   67  A    between atoms: _178  and  _180
REMARK   68  A    between atoms: _180  and  _181
REMARK   69  A    between atoms: _180  and  _183
REMARK   70  A    between atoms: _183  and  _184
REMARK   71  A    between atoms: _186  and  _188
REMARK   72  A    between atoms: _188  and  _189
REMARK   73  A    between atoms: _188  and  _191
REMARK   74  A    between atoms: _191  and  _192
REMARK   75  A    between atoms: _192  and  _193
REMARK   76  A    between atoms: _196  and  _198
REMARK   77  A    between atoms: _198  and  _199
REMARK   78  A    between atoms: _198  and  _201
REMARK   79  A    between atoms: _201  and  _202
REMARK   80  A    between atoms: _202  and  _352
REMARK   81  A    between atoms: _203  and  _205
REMARK   82  A    between atoms: _205  and  _206
REMARK   83  A    between atoms: _205  and  _208
REMARK   84  A    between atoms: _208  and  _209
REMARK   85  A    between atoms: _209  and  _210
REMARK   86  A    between atoms: _210  and  _211
REMARK   87  A    between atoms: _220  and  _222
REMARK   88  A    between atoms: _222  and  _223
REMARK   89  A    between atoms: _222  and  _225
REMARK   90  A    between atoms: _225  and  _226
REMARK   91  A    between atoms: _226  and  _227
REMARK   92  A    between atoms: _230  and  _232
REMARK   93  A    between atoms: _232  and  _233
REMARK   94  A    between atoms: _232  and  _235
REMARK   95  A    between atoms: _235  and  _236
REMARK   96  A    between atoms: _236  and  _237
REMARK   97  A    between atoms: _237  and  _238
REMARK   98  A    between atoms: _247  and  _249
REMARK   99  A    between atoms: _249  and  _250
REMARK  100  A    between atoms: _249  and  _252
REMARK  101  A    between atoms: _252  and  _253
REMARK  102  A    between atoms: _255  and  _257
REMARK  103  A    between atoms: _257  and  _258
REMARK  104  A    between atoms: _257  and  _260
REMARK  105  A    between atoms: _260  and  _261
REMARK  106  A    between atoms: _266  and  _267
REMARK  107  A    between atoms: _269  and  _271
REMARK  108  A    between atoms: _271  and  _272
REMARK  109  A    between atoms: _271  and  _274
REMARK  110  A    between atoms: _274  and  _275
REMARK  111  A    between atoms: _280  and  _282
REMARK  112  A    between atoms: _282  and  _283
REMARK  113  A    between atoms: _282  and  _285
REMARK  114  A    between atoms: _288  and  _290
REMARK  115  A    between atoms: _290  and  _291
REMARK  116  A    between atoms: _290  and  _293
REMARK  117  A    between atoms: _293  and  _294
REMARK  118  A    between atoms: _294  and  _295
REMARK  119  A    between atoms: _295  and  _296
REMARK  120  A    between atoms: _305  and  _307
REMARK  121  A    between atoms: _307  and  _308
REMARK  122  A    between atoms: _307  and  _310
REMARK  123  A    between atoms: _310  and  _311
REMARK  124  A    between atoms: _316  and  _318
REMARK  125  A    between atoms: _318  and  _319
REMARK  126  A    between atoms: _318  and  _321
REMARK  127  A    between atoms: _321  and  _322
REMARK  128  A    between atoms: _325  and  _327
REMARK  129  A    between atoms: _327  and  _328
REMARK  130  A    between atoms: _330  and  _332
REMARK  131  A    between atoms: _332  and  _333
REMARK  132  A    between atoms: _332  and  _335
REMARK  133  A    between atoms: _335  and  _336
REMARK  134  A    between atoms: _346  and  _348
REMARK  135  A    between atoms: _348  and  _349
REMARK  136  A    between atoms: _348  and  _351
REMARK  137  A    between atoms: _351  and  _352
REMARK  138  A    between atoms: _353  and  _355
REMARK  139  A    between atoms: _355  and  _356
REMARK  140  A    between atoms: _355  and  _358
REMARK  141  A    between atoms: _358  and  _359
REMARK  142  A    between atoms: _362  and  _364
REMARK  143  A    between atoms: _364  and  _365
REMARK  144  A    between atoms: _367  and  _369
REMARK  145  A    between atoms: _369  and  _370
REMARK  146  A    between atoms: _369  and  _372
REMARK  147  A    between atoms: _372  and  _373
REMARK  148  A    between atoms: _378  and  _379
REMARK  149  A    between atoms: _381  and  _383
REMARK  150  A    between atoms: _383  and  _384
REMARK  151  A    between atoms: _383  and  _386
REMARK  152  A    between atoms: _386  and  _387
REMARK  153  A    between atoms: _387  and  _388
REMARK  154  A    between atoms: _388  and  _389
REMARK  155  A    between atoms: _398  and  _400
REMARK  156  A    between atoms: _400  and  _401
REMARK  157  A    between atoms: _400  and  _403
REMARK  158  A    between atoms: _403  and  _404
REMARK  159  A    between atoms: _407  and  _409
REMARK  160  A    between atoms: _409  and  _410
REMARK  161  A    between atoms: _409  and  _412
REMARK  162  A    between atoms: _412  and  _413
REMARK  163  A    between atoms: _413  and  _414
REMARK  164  A    between atoms: _414  and  _415
REMARK  165  A    between atoms: _415  and  _416
REMARK  166  A    between atoms: _420  and  _422
REMARK  167  A    between atoms: _422  and  _423
REMARK  168  A    between atoms: _425  and  _427
REMARK  169  A    between atoms: _427  and  _428
REMARK  170  A    between atoms: _431  and  _433
REMARK  171  A    between atoms: _433  and  _434
REMARK  172  A    between atoms: _433  and  _436
REMARK  173  A    between atoms: _436  and  _437
REMARK  174  A    between atoms: _442  and  _444
REMARK  175  A    between atoms: _444  and  _445
REMARK  176  A    between atoms: _448  and  _450
REMARK  177  A    between atoms: _450  and  _451
REMARK  178  A    between atoms: _454  and  _455
REMARK  179  A    between atoms: _460  and  _462
REMARK  180  A    between atoms: _462  and  _463
REMARK  181  A    between atoms: _462  and  _465
REMARK  182  A    between atoms: _465  and  _466
REMARK  183  A    between atoms: _469  and  _471
REMARK  184  A    between atoms: _471  and  _472
REMARK  185  A    between atoms: _471  and  _474
REMARK  186  A    between atoms: _474  and  _475
REMARK  187  A    between atoms: _485  and  _487
REMARK  188  A    between atoms: _487  and  _488
REMARK  189  A    between atoms: _487  and  _490
REMARK  190  A    between atoms: _490  and  _491
REMARK  191  A    between atoms: _497  and  _498
REMARK  192  A    between atoms: _503  and  _505
REMARK  193  A    between atoms: _505  and  _506
REMARK  194  A    between atoms: _505  and  _508
REMARK  195  A    between atoms: _508  and  _509
REMARK  196  A    between atoms: _514  and  _516
REMARK  197  A    between atoms: _516  and  _517
REMARK  198  A    between atoms: _516  and  _519
REMARK  199  A    between atoms: _522  and  _524
REMARK  200  A    between atoms: _524  and  _525
REMARK  201  A    between atoms: _524  and  _527
REMARK  202  A    between atoms: _527  and  _528
REMARK  203  A    between atoms: _528  and  _529
REMARK  204  A    between atoms: _535  and  _536
REMARK  205  A    between atoms: _541  and  _543
REMARK  206  A    between atoms: _543  and  _544
REMARK  207  A    between atoms: _543  and  _546
REMARK  208  A    between atoms: _546  and  _547
REMARK  209  A    between atoms: _550  and  _552
REMARK  210  A    between atoms: _552  and  _553
REMARK  211  A    between atoms: _552  and  _555
REMARK  212  A    between atoms: _555  and  _556
REMARK  213  A    between atoms: _558  and  _560
REMARK  214  A    between atoms: _560  and  _561
REMARK  215  A    between atoms: _560  and  _563
REMARK  216  A    between atoms: _563  and  _564
REMARK  217  A    between atoms: _569  and  _570
REMARK  218  A    between atoms: _572  and  _574
REMARK  219  A    between atoms: _574  and  _575
REMARK  220  A    between atoms: _574  and  _577
REMARK  221  A    between atoms: _577  and  _578
REMARK  222  A    between atoms: _588  and  _590
REMARK  223  A    between atoms: _590  and  _591
REMARK  224  A    between atoms: _593  and  _595
REMARK  225  A    between atoms: _595  and  _596
REMARK  226  A    between atoms: _599  and  _601
REMARK  227  A    between atoms: _601  and  _602
REMARK  228  A    between atoms: _601  and  _604
REMARK  229  A    between atoms: _604  and  _605
REMARK  230  A    between atoms: _610  and  _612
REMARK  231  A    between atoms: _612  and  _613
REMARK  232  A    between atoms: _616  and  _618
REMARK  233  A    between atoms: _618  and  _619
REMARK  234  A    between atoms: _622  and  _623
REMARK  235  A    between atoms: _628  and  _630
REMARK  236  A    between atoms: _630  and  _631
REMARK  237  A    between atoms: _630  and  _633
REMARK  238  A    between atoms: _633  and  _634
REMARK  239  A    between atoms: _637  and  _639
REMARK  240  A    between atoms: _639  and  _640
REMARK  241  A    between atoms: _639  and  _642
REMARK  242  A    between atoms: _642  and  _643
REMARK  243  A    between atoms: _653  and  _655
REMARK  244  A    between atoms: _655  and  _656
REMARK  245  A    between atoms: _655  and  _658
REMARK  246  A    between atoms: _658  and  _659
REMARK  247  A    between atoms: _664  and  _666
REMARK  248  A    between atoms: _666  and  _667
REMARK  249  A    between atoms: _666  and  _669
REMARK  250  A    between atoms: _669  and  _670
REMARK  251  A    between atoms: _673  and  _675
REMARK  252  A    between atoms: _675  and  _676
REMARK  253  A    between atoms: _675  and  _678
REMARK  254  A    between atoms: _678  and  _679
REMARK  255  A    between atoms: _679  and  _680
REMARK  256  A    between atoms: _683  and  _685
REMARK  257  A    between atoms: _685  and  _686
REMARK  258  A    between atoms: _685  and  _688
REMARK  259  A    between atoms: _688  and  _689
REMARK  260  A    between atoms: _689  and  _690
REMARK  261  A    between atoms: _690  and  _691
REMARK  262  A    between atoms: _691  and  _692
REMARK  263  A    between atoms: _696  and  _698
REMARK  264  A    between atoms: _698  and  _699
REMARK  265  A    between atoms: _698  and  _701
REMARK  266  A    between atoms: _701  and  _702
REMARK  267  A    between atoms: _707  and  _709
REMARK  268  A    between atoms: _709  and  _710
REMARK  269  A    between atoms: _709  and  _712
REMARK  270  A    between atoms: _712  and  _713
REMARK  271  A    between atoms: _713  and  _714
REMARK  272  A    between atoms: _714  and  _715
REMARK  273  A    between atoms: _724  and  _726
REMARK  274  A    between atoms: _726  and  _727
REMARK  275  A    between atoms: _726  and  _729
REMARK  276  A    between atoms: _729  and  _730
REMARK  277  A    between atoms: _733  and  _735
REMARK  278  A    between atoms: _735  and  _736
REMARK  279  A    between atoms: _735  and  _738
REMARK  280  A    between atoms: _741  and  _743
REMARK  281  A    between atoms: _743  and  _744
REMARK  282  A    between atoms: _743  and  _746
REMARK  283  A    between atoms: _746  and  _747
REMARK  284  A    between atoms: _747  and  _748
REMARK  285  A    between atoms: _754  and  _755
REMARK  286  A    between atoms: _760  and  _762
REMARK  287  A    between atoms: _762  and  _763
REMARK  288  A    between atoms: _762  and  _765
REMARK  289  A    between atoms: _765  and  _766
REMARK  290  A    between atoms: _769  and  _771
REMARK  291  A    between atoms: _771  and  _772
REMARK  292  A    between atoms: _771  and  _774
REMARK  293  A    between atoms: _774  and  _775
REMARK  294  A    between atoms: _775  and  _776
REMARK  295  A    between atoms: _776  and  _777
REMARK  296  A    between atoms: _786  and  _788
REMARK  297  A    between atoms: _788  and  _789
REMARK                            x       y       z     vdW  Elec       q    Type
REMARK                         _______ _______ _______ _____ _____    ______ ____
ROOT
ATOM      1  CA  GLU A   1       2.693  32.018 -29.715  0.00  0.00    +0.134 C 
ENDROOT
BRANCH   1   2
ATOM      2  N   GLU A   1       3.356  33.076 -30.469  0.00  0.00    -0.239 NA
ATOM      3  H   GLU A   1       4.393  33.145 -30.436  0.00  0.00    +0.142 HD
ENDBRANCH   1   2
BRANCH   1   4
ATOM      4  C   GLU A   1       2.995  32.062 -28.229  0.00  0.00    +0.224 C 
ATOM      5  O   GLU A   1       4.149  32.182 -27.822  0.00  0.00    -0.287 OA
ENDBRANCH   1   4
BRANCH   1   6
ATOM      6  CB  GLU A   1       3.103  30.648 -30.264  0.00  0.00    +0.037 C 
BRANCH   6   7
ATOM      7  CG  GLU A   1       2.568  30.354 -31.666  0.00  0.00    +0.116 C 
BRANCH   7   8
ATOM      8  CD  GLU A   1       3.043  29.023 -32.232  0.00  0.00    +0.365 C 
ATOM      9  OE2 GLU A   1       3.108  28.025 -31.484  0.00  0.00    -0.246 OA
ATOM     10  OE1 GLU A   1       3.337  28.978 -33.443  0.00  0.00    -0.246 OA
ENDBRANCH   7   8
ENDBRANCH   6   7
ENDBRANCH   1   6
TORSDOF 5
REMARK  Name = ../refined-set-2016/3o4k/3o4k_pocket.pdb
REMARK  297 active torsions:
REMARK  status: ('A' for Active; 'I' for Inactive)
REMARK    1  A    between atoms: _1  and  _3
REMARK    2  A    between atoms: _3  and  _4
REMARK    3  A    between atoms: _3  and  _6
REMARK    4  A    between atoms: _6  and  _7
REMARK    5  A    between atoms: _7  and  _8
REMARK    6  A    between atoms: _8  and  _9
REMARK    7  A    between atoms: _18  and  _20
REMARK    8  A    between atoms: _20  and  _21
REMARK    9  A    between atoms: _20  and  _23
REMARK   10  A    between atoms: _23  and  _24
REMARK   11  A    between atoms: _29  and  _30
REMARK   12  A    between atoms: _32  and  _34
REMARK   13  A    between atoms: _34  and  _35
REMARK   14  A    between atoms: _34  and  _37
REMARK   15  A    between atoms: _37  and  _38
REMARK   16  A    between atoms: _48  and  _50
REMARK   17  A    between atoms: _50  and  _51
REMARK   18  A    between atoms: _50  and  _53
REMARK   19  A    between atoms: _53  and  _54
REMARK   20  A    between atoms: _54  and  _55
REMARK   21  A    between atoms: _55  and  _56
REMARK   22  A    between atoms: _65  and  _67
REMARK   23  A    between atoms: _67  and  _68
REMARK   24  A    between atoms: _67  and  _70
REMARK   25  A    between atoms: _70  and  _71
REMARK   26  A    between atoms: _73  and  _75
REMARK   27  A    between atoms: _75  and  _76
REMARK   28  A    between atoms: _75  and  _78
REMARK   29  A    between atoms: _78  and  _79
REMARK   30  A    between atoms: _84  and  _86
REMARK   31  A    between atoms: _86  and  _87
REMARK   32  A    between atoms: _86  and  _89
REMARK   33  A    between atoms: _89  and  _90
REMARK   34  A    between atoms: _95  and  _96
REMARK   35  A    between atoms: _98  and  _100
REMARK   36  A    between atoms: _100  and  _101
REMARK   37  A    between atoms: _100  and  _103
REMARK   38  A    between atoms: _103  and  _104
REMARK   39  A    between atoms: _104  and  _105
REMARK   40  A    between atoms: _108  and  _110
REMARK   41  A    between atoms: _110  and  _111
REMARK   42  A    between atoms: _110  and  _113
REMARK   43  A    between atoms: _116  and  _118
REMARK   44  A    between atoms: _118  and  _119
REMARK   45  A    between atoms: _118  and  _121
REMARK   46  A    between atoms: _121  and  _122
REMARK   47  A    between atoms: _122  and  _123
REMARK   48  A    between atoms: _123  and  _124
REMARK   49  A    between atoms: _124  and  _125
REMARK   50  A    between atoms: _129  and  _131
REMARK   51  A    between atoms: _131  and  _132
REMARK   52  A    between atoms: _131  and  _134
REMARK   53  A    between atoms: _134  and  _135
REMARK   54  A    between atoms: _140  and  _142
REMARK   55  A    between atoms: _142  and  _143
REMARK   56  A    between atoms: _142  and  _145
REMARK   57  A    between atoms: _145  and  _146
REMARK   58  A    between atoms: _151  and  _152
REMARK   59  A    between atoms: _154  and  _156
REMARK   60  A    between atoms: _156  and  _157
REMARK   61  A    between atoms: _156  and  _159
REMARK   62  A    between atoms: _159  and  _160
REMARK   63  A    between atoms: _160  and  _161
REMARK   64  A    between atoms: _161  and  _162
REMARK   65  A    between atoms: _171  and  _173
REMARK   66  A    between atoms: _173  and  _174
REMARK   67  A    between atoms: _178  and  _180
REMARK   68  A    between atoms: _180  and  _181
REMARK   69  A    between atoms: _180  and  _183
REMARK   70  A    between atoms: _183  and  _184
REMARK   71  A    between atoms: _186  and  _188
REMARK   72  A    between atoms: _188  and  _189
REMARK   73  A    between atoms: _188  and  _191
REMARK   74  A    between atoms: _191  and  _192
REMARK   75  A    between atoms: _192  and  _193
REMARK   76  A    between atoms: _196  and  _198
REMARK   77  A    between atoms: _198  and  _199
REMARK   78  A    between atoms: _198  and  _201
REMARK   79  A    between atoms: _201  and  _202
REMARK   80  A    between atoms: _202  and  _352
REMARK   81  A    between atoms: _203  and  _205
REMARK   82  A    between atoms: _205  and  _206
REMARK   83  A    between atoms: _205  and  _208
REMARK   84  A    between atoms: _208  and  _209
REMARK   85  A    between atoms: _209  and  _210
REMARK   86  A    between atoms: _210  and  _211
REMARK   87  A    between atoms: _220  and  _222
REMARK   88  A    between atoms: _222  and  _223
REMARK   89  A    between atoms: _222  and  _225
REMARK   90  A    between atoms: _225  and  _226
REMARK   91  A    between atoms: _226  and  _227
REMARK   92  A    between atoms: _230  and  _232
REMARK   93  A    between atoms: _232  and  _233
REMARK   94  A    between atoms: _232  and  _235
REMARK   95  A    between atoms: _235  and  _236
REMARK   96  A    between atoms: _236  and  _237
REMARK   97  A    between atoms: _237  and  _238
REMARK   98  A    between atoms: _247  and  _249
REMARK   99  A    between atoms: _249  and  _250
REMARK  100  A    between atoms: _249  and  _252
REMARK  101  A    between atoms: _252  and  _253
REMARK  102  A    between atoms: _255  and  _257
REMARK  103  A    between atoms: _257  and  _258
REMARK  104  A    between atoms: _257  and  _260
REMARK  105  A    between atoms: _260  and  _261
REMARK  106  A    between atoms: _266  and  _267
REMARK  107  A    between atoms: _269  and  _271
REMARK  108  A    between atoms: _271  and  _272
REMARK  109  A    between atoms: _271  and  _274
REMARK  110  A    between atoms: _274  and  _275
REMARK  111  A    between atoms: _280  and  _282
REMARK  112  A    between atoms: _282  and  _283
REMARK  113  A    between atoms: _282  and  _285
REMARK  114  A    between atoms: _288  and  _290
REMARK  115  A    between atoms: _290  and  _291
REMARK  116  A    between atoms: _290  and  _293
REMARK  117  A    between atoms: _293  and  _294
REMARK  118  A    between atoms: _294  and  _295
REMARK  119  A    between atoms: _295  and  _296
REMARK  120  A    between atoms: _305  and  _307
REMARK  121  A    between atoms: _307  and  _308
REMARK  122  A    between atoms: _307  and  _310
REMARK  123  A    between atoms: _310  and  _311
REMARK  124  A    between atoms: _316  and  _318
REMARK  125  A    between atoms: _318  and  _319
REMARK  126  A    between atoms: _318  and  _321
REMARK  127  A    between atoms: _321  and  _322
REMARK  128  A    between atoms: _325  and  _327
REMARK  129  A    between atoms: _327  and  _328
REMARK  130  A    between atoms: _330  and  _332
REMARK  131  A    between atoms: _332  and  _333
REMARK  132  A    between atoms: _332  and  _335
REMARK  133  A    between atoms: _335  and  _336
REMARK  134  A    between atoms: _346  and  _348
REMARK  135  A    between atoms: _348  and  _349
REMARK  136  A    between atoms: _348  and  _351
REMARK  137  A    between atoms: _351  and  _352
REMARK  138  A    between atoms: _353  and  _355
REMARK  139  A    between atoms: _355  and  _356
REMARK  140  A    between atoms: _355  and  _358
REMARK  141  A    between atoms: _358  and  _359
REMARK  142  A    between atoms: _362  and  _364
REMARK  143  A    between atoms: _364  and  _365
REMARK  144  A    between atoms: _367  and  _369
REMARK  145  A    between atoms: _369  and  _370
REMARK  146  A    between atoms: _369  and  _372
REMARK  147  A    between atoms: _372  and  _373
REMARK  148  A    between atoms: _378  and  _379
REMARK  149  A    between atoms: _381  and  _383
REMARK  150  A    between atoms: _383  and  _384
REMARK  151  A    between atoms: _383  and  _386
REMARK  152  A    between atoms: _386  and  _387
REMARK  153  A    between atoms: _387  and  _388
REMARK  154  A    between atoms: _388  and  _389
REMARK  155  A    between atoms: _398  and  _400
REMARK  156  A    between atoms: _400  and  _401
REMARK  157  A    between atoms: _400  and  _403
REMARK  158  A    between atoms: _403  and  _404
REMARK  159  A    between atoms: _407  and  _409
REMARK  160  A    between atoms: _409  and  _410
REMARK  161  A    between atoms: _409  and  _412
REMARK  162  A    between atoms: _412  and  _413
REMARK  163  A    between atoms: _413  and  _414
REMARK  164  A    between atoms: _414  and  _415
REMARK  165  A    between atoms: _415  and  _416
REMARK  166  A    between atoms: _420  and  _422
REMARK  167  A    between atoms: _422  and  _423
REMARK  168  A    between atoms: _425  and  _427
REMARK  169  A    between atoms: _427  and  _428
REMARK  170  A    between atoms: _431  and  _433
REMARK  171  A    between atoms: _433  and  _434
REMARK  172  A    between atoms: _433  and  _436
REMARK  173  A    between atoms: _436  and  _437
REMARK  174  A    between atoms: _442  and  _444
REMARK  175  A    between atoms: _444  and  _445
REMARK  176  A    between atoms: _448  and  _450
REMARK  177  A    between atoms: _450  and  _451
REMARK  178  A    between atoms: _454  and  _455
REMARK  179  A    between atoms: _460  and  _462
REMARK  180  A    between atoms: _462  and  _463
REMARK  181  A    between atoms: _462  and  _465
REMARK  182  A    between atoms: _465  and  _466
REMARK  183  A    between atoms: _469  and  _471
REMARK  184  A    between atoms: _471  and  _472
REMARK  185  A    between atoms: _471  and  _474
REMARK  186  A    between atoms: _474  and  _475
REMARK  187  A    between atoms: _485  and  _487
REMARK  188  A    between atoms: _487  and  _488
REMARK  189  A    between atoms: _487  and  _490
REMARK  190  A    between atoms: _490  and  _491
REMARK  191  A    between atoms: _497  and  _498
REMARK  192  A    between atoms: _503  and  _505
REMARK  193  A    between atoms: _505  and  _506
REMARK  194  A    between atoms: _505  and  _508
REMARK  195  A    between atoms: _508  and  _509
REMARK  196  A    between atoms: _514  and  _516
REMARK  197  A    between atoms: _516  and  _517
REMARK  198  A    between atoms: _516  and  _519
REMARK  199  A    between atoms: _522  and  _524
REMARK  200  A    between atoms: _524  and  _525
REMARK  201  A    between atoms: _524  and  _527
REMARK  202  A    between atoms: _527  and  _528
REMARK  203  A    between atoms: _528  and  _529
REMARK  204  A    between atoms: _535  and  _536
REMARK  205  A    between atoms: _541  and  _543
REMARK  206  A    between atoms: _543  and  _544
REMARK  207  A    between atoms: _543  and  _546
REMARK  208  A    between atoms: _546  and  _547
REMARK  209  A    between atoms: _550  and  _552
REMARK  210  A    between atoms: _552  and  _553
REMARK  211  A    between atoms: _552  and  _555
REMARK  212  A    between atoms: _555  and  _556
REMARK  213  A    between atoms: _558  and  _560
REMARK  214  A    between atoms: _560  and  _561
REMARK  215  A    between atoms: _560  and  _563
REMARK  216  A    between atoms: _563  and  _564
REMARK  217  A    between atoms: _569  and  _570
REMARK  218  A    between atoms: _572  and  _574
REMARK  219  A    between atoms: _574  and  _575
REMARK  220  A    between atoms: _574  and  _577
REMARK  221  A    between atoms: _577  and  _578
REMARK  222  A    between atoms: _588  and  _590
REMARK  223  A    between atoms: _590  and  _591
REMARK  224  A    between atoms: _593  and  _595
REMARK  225  A    between atoms: _595  and  _596
REMARK  226  A    between atoms: _599  and  _601
REMARK  227  A    between atoms: _601  and  _602
REMARK  228  A    between atoms: _601  and  _604
REMARK  229  A    between atoms: _604  and  _605
REMARK  230  A    between atoms: _610  and  _612
REMARK  231  A    between atoms: _612  and  _613
REMARK  232  A    between atoms: _616  and  _618
REMARK  233  A    between atoms: _618  and  _619
REMARK  234  A    between atoms: _622  and  _623
REMARK  235  A    between atoms: _628  and  _630
REMARK  236  A    between atoms: _630  and  _631
REMARK  237  A    between atoms: _630  and  _633
REMARK  238  A    between atoms: _633  and  _634
REMARK  239  A    between atoms: _637  and  _639
REMARK  240  A    between atoms: _639  and  _640
REMARK  241  A    between atoms: _639  and  _642
REMARK  242  A    between atoms: _642  and  _643
REMARK  243  A    between atoms: _653  and  _655
REMARK  244  A    between atoms: _655  and  _656
REMARK  245  A    between atoms: _655  and  _658
REMARK  246  A    between atoms: _658  and  _659
REMARK  247  A    between atoms: _664  and  _666
REMARK  248  A    between atoms: _666  and  _667
REMARK  249  A    between atoms: _666  and  _669
REMARK  250  A    between atoms: _669  and  _670
REMARK  251  A    between atoms: _673  and  _675
REMARK  252  A    between atoms: _675  and  _676
REMARK  253  A    between atoms: _675  and  _678
REMARK  254  A    between atoms: _678  and  _679
REMARK  255  A    between atoms: _679  and  _680
REMARK  256  A    between atoms: _683  and  _685
REMARK  257  A    between atoms: _685  and  _686
REMARK  258  A    between atoms: _685  and  _688
REMARK  259  A    between atoms: _688  and  _689
REMARK  260  A    between atoms: _689  and  _690
REMARK  261  A    between atoms: _690  and  _691
REMARK  262  A    between atoms: _691  and  _692
REMARK  263  A    between atoms: _696  and  _698
REMARK  264  A    between atoms: _698  and  _699
REMARK  265  A    between atoms: _698  and  _701
REMARK  266  A    between atoms: _701  and  _702
REMARK  267  A    between atoms: _707  and  _709
REMARK  268  A    between atoms: _709  and  _710
REMARK  269  A    between atoms: _709  and  _712
REMARK  270  A    between atoms: _712  and  _713
REMARK  271  A    between atoms: _713  and  _714
REMARK  272  A    between atoms: _714  and  _715
REMARK  273  A    between atoms: _724  and  _726
REMARK  274  A    between atoms: _726  and  _727
REMARK  275  A    between atoms: _726  and  _729
REMARK  276  A    between atoms: _729  and  _730
REMARK  277  A    between atoms: _733  and  _735
REMARK  278  A    between atoms: _735  and  _736
REMARK  279  A    between atoms: _735  and  _738
REMARK  280  A    between atoms: _741  and  _743
REMARK  281  A    between atoms: _743  and  _744
REMARK  282  A    between atoms: _743  and  _746
REMARK  283  A    between atoms: _746  and  _747
REMARK  284  A    between atoms: _747  and  _748
REMARK  285  A    between atoms: _754  and  _755
REMARK  286  A    between atoms: _760  and  _762
REMARK  287  A    between atoms: _762  and  _763
REMARK  288  A    between atoms: _762  and  _765
REMARK  289  A    between atoms: _765  and  _766
REMARK  290  A    between atoms: _769  and  _771
REMARK  291  A    between atoms: _771  and  _772
REMARK  292  A    between atoms: _771  and  _774
REMARK  293  A    between atoms: _774  and  _775
REMARK  294  A    between atoms: _775  and  _776
REMARK  295  A    between atoms: _776  and  _777
REMARK  296  A    between atoms: _786  and  _788
REMARK  297  A    between atoms: _788  and  _789
REMARK                            x       y       z     vdW  Elec       q    Type
REMARK                         _______ _______ _______ _____ _____    ______ ____
ROOT
ATOM      1  CG  LYS A   1       4.791  28.079 -25.769  0.00  0.00    -0.000 C 
ENDROOT
BRANCH   1   2
ATOM      2  CB  LYS A   1       4.512  28.238 -24.294  0.00  0.00    +0.025 C 
BRANCH   2   3
ATOM      3  CA  LYS A   1       3.201  28.945 -23.924  0.00  0.00    +0.133 C 
BRANCH   3   4
ATOM      4  N   LYS A   1       3.095  30.248 -24.577  0.00  0.00    -0.239 NA
ATOM      5  H   LYS A   1       3.822  30.966 -24.383  0.00  0.00    +0.142 HD
ENDBRANCH   3   4
BRANCH   3   6
ATOM      6  C   LYS A   1       3.229  29.198 -22.424  0.00  0.00    +0.224 C 
ATOM      7  O   LYS A   1       3.570  30.292 -21.978  0.00  0.00    -0.287 OA
ENDBRANCH   3   6
ENDBRANCH   2   3
ENDBRANCH   1   2
BRANCH   1   8
ATOM      8  CD  LYS A   1       4.244  26.785 -26.316  0.00  0.00    -0.024 C 
BRANCH   8   9
ATOM      9  CE  LYS A   1       4.661  26.639 -27.771  0.00  0.00    -0.086 C 
BRANCH   9  10
ATOM     10  NZ  LYS A   1       3.882  25.611 -28.482  0.00  0.00    +0.380 N 
ATOM     11  HZ1 LYS A   1       4.018  24.691 -28.016  0.00  0.00    -0.089 HD
ATOM     12  HZ2 LYS A   1       2.874  25.866 -28.462  0.00  0.00    -0.089 HD
ATOM     13  HZ3 LYS A   1       4.206  25.553 -29.468  0.00  0.00    -0.089 HD
ENDBRANCH   9  10
ENDBRANCH   8   9
ENDBRANCH   1   8
TORSDOF 7
REMARK  Name = ../refined-set-2016/3o4k/3o4k_pocket.pdb
REMARK  297 active torsions:
REMARK  status: ('A' for Active; 'I' for Inactive)
REMARK    1  A    between atoms: _1  and  _3
REMARK    2  A    between atoms: _3  and  _4
REMARK    3  A    between atoms: _3  and  _6
REMARK    4  A    between atoms: _6  and  _7
REMARK    5  A    between atoms: _7  and  _8
REMARK    6  A    between atoms: _8  and  _9
REMARK    7  A    between atoms: _18  and  _20
REMARK    8  A    between atoms: _20  and  _21
REMARK    9  A    between atoms: _20  and  _23
REMARK   10  A    between atoms: _23  and  _24
REMARK   11  A    between atoms: _29  and  _30
REMARK   12  A    between atoms: _32  and  _34
REMARK   13  A    between atoms: _34  and  _35
REMARK   14  A    between atoms: _34  and  _37
REMARK   15  A    between atoms: _37  and  _38
REMARK   16  A    between atoms: _48  and  _50
REMARK   17  A    between atoms: _50  and  _51
REMARK   18  A    between atoms: _50  and  _53
REMARK   19  A    between atoms: _53  and  _54
REMARK   20  A    between atoms: _54  and  _55
REMARK   21  A    between atoms: _55  and  _56
REMARK   22  A    between atoms: _65  and  _67
REMARK   23  A    between atoms: _67  and  _68
REMARK   24  A    between atoms: _67  and  _70
REMARK   25  A    between atoms: _70  and  _71
REMARK   26  A    between atoms: _73  and  _75
REMARK   27  A    between atoms: _75  and  _76
REMARK   28  A    between atoms: _75  and  _78
REMARK   29  A    between atoms: _78  and  _79
REMARK   30  A    between atoms: _84  and  _86
REMARK   31  A    between atoms: _86  and  _87
REMARK   32  A    between atoms: _86  and  _89
REMARK   33  A    between atoms: _89  and  _90
REMARK   34  A    between atoms: _95  and  _96
REMARK   35  A    between atoms: _98  and  _100
REMARK   36  A    between atoms: _100  and  _101
REMARK   37  A    between atoms: _100  and  _103
REMARK   38  A    between atoms: _103  and  _104
REMARK   39  A    between atoms: _104  and  _105
REMARK   40  A    between atoms: _108  and  _110
REMARK   41  A    between atoms: _110  and  _111
REMARK   42  A    between atoms: _110  and  _113
REMARK   43  A    between atoms: _116  and  _118
REMARK   44  A    between atoms: _118  and  _119
REMARK   45  A    between atoms: _118  and  _121
REMARK   46  A    between atoms: _121  and  _122
REMARK   47  A    between atoms: _122  and  _123
REMARK   48  A    between atoms: _123  and  _124
REMARK   49  A    between atoms: _124  and  _125
REMARK   50  A    between atoms: _129  and  _131
REMARK   51  A    between atoms: _131  and  _132
REMARK   52  A    between atoms: _131  and  _134
REMARK   53  A    between atoms: _134  and  _135
REMARK   54  A    between atoms: _140  and  _142
REMARK   55  A    between atoms: _142  and  _143
REMARK   56  A    between atoms: _142  and  _145
REMARK   57  A    between atoms: _145  and  _146
REMARK   58  A    between atoms: _151  and  _152
REMARK   59  A    between atoms: _154  and  _156
REMARK   60  A    between atoms: _156  and  _157
REMARK   61  A    between atoms: _156  and  _159
REMARK   62  A    between atoms: _159  and  _160
REMARK   63  A    between atoms: _160  and  _161
REMARK   64  A    between atoms: _161  and  _162
REMARK   65  A    between atoms: _171  and  _173
REMARK   66  A    between atoms: _173  and  _174
REMARK   67  A    between atoms: _178  and  _180
REMARK   68  A    between atoms: _180  and  _181
REMARK   69  A    between atoms: _180  and  _183
REMARK   70  A    between atoms: _183  and  _184
REMARK   71  A    between atoms: _186  and  _188
REMARK   72  A    between atoms: _188  and  _189
REMARK   73  A    between atoms: _188  and  _191
REMARK   74  A    between atoms: _191  and  _192
REMARK   75  A    between atoms: _192  and  _193
REMARK   76  A    between atoms: _196  and  _198
REMARK   77  A    between atoms: _198  and  _199
REMARK   78  A    between atoms: _198  and  _201
REMARK   79  A    between atoms: _201  and  _202
REMARK   80  A    between atoms: _202  and  _352
REMARK   81  A    between atoms: _203  and  _205
REMARK   82  A    between atoms: _205  and  _206
REMARK   83  A    between atoms: _205  and  _208
REMARK   84  A    between atoms: _208  and  _209
REMARK   85  A    between atoms: _209  and  _210
REMARK   86  A    between atoms: _210  and  _211
REMARK   87  A    between atoms: _220  and  _222
REMARK   88  A    between atoms: _222  and  _223
REMARK   89  A    between atoms: _222  and  _225
REMARK   90  A    between atoms: _225  and  _226
REMARK   91  A    between atoms: _226  and  _227
REMARK   92  A    between atoms: _230  and  _232
REMARK   93  A    between atoms: _232  and  _233
REMARK   94  A    between atoms: _232  and  _235
REMARK   95  A    between atoms: _235  and  _236
REMARK   96  A    between atoms: _236  and  _237
REMARK   97  A    between atoms: _237  and  _238
REMARK   98  A    between atoms: _247  and  _249
REMARK   99  A    between atoms: _249  and  _250
REMARK  100  A    between atoms: _249  and  _252
REMARK  101  A    between atoms: _252  and  _253
REMARK  102  A    between atoms: _255  and  _257
REMARK  103  A    between atoms: _257  and  _258
REMARK  104  A    between atoms: _257  and  _260
REMARK  105  A    between atoms: _260  and  _261
REMARK  106  A    between atoms: _266  and  _267
REMARK  107  A    between atoms: _269  and  _271
REMARK  108  A    between atoms: _271  and  _272
REMARK  109  A    between atoms: _271  and  _274
REMARK  110  A    between atoms: _274  and  _275
REMARK  111  A    between atoms: _280  and  _282
REMARK  112  A    between atoms: _282  and  _283
REMARK  113  A    between atoms: _282  and  _285
REMARK  114  A    between atoms: _288  and  _290
REMARK  115  A    between atoms: _290  and  _291
REMARK  116  A    between atoms: _290  and  _293
REMARK  117  A    between atoms: _293  and  _294
REMARK  118  A    between atoms: _294  and  _295
REMARK  119  A    between atoms: _295  and  _296
REMARK  120  A    between atoms: _305  and  _307
REMARK  121  A    between atoms: _307  and  _308
REMARK  122  A    between atoms: _307  and  _310
REMARK  123  A    between atoms: _310  and  _311
REMARK  124  A    between atoms: _316  and  _318
REMARK  125  A    between atoms: _318  and  _319
REMARK  126  A    between atoms: _318  and  _321
REMARK  127  A    between atoms: _321  and  _322
REMARK  128  A    between atoms: _325  and  _327
REMARK  129  A    between atoms: _327  and  _328
REMARK  130  A    between atoms: _330  and  _332
REMARK  131  A    between atoms: _332  and  _333
REMARK  132  A    between atoms: _332  and  _335
REMARK  133  A    between atoms: _335  and  _336
REMARK  134  A    between atoms: _346  and  _348
REMARK  135  A    between atoms: _348  and  _349
REMARK  136  A    between atoms: _348  and  _351
REMARK  137  A    between atoms: _351  and  _352
REMARK  138  A    between atoms: _353  and  _355
REMARK  139  A    between atoms: _355  and  _356
REMARK  140  A    between atoms: _355  and  _358
REMARK  141  A    between atoms: _358  and  _359
REMARK  142  A    between atoms: _362  and  _364
REMARK  143  A    between atoms: _364  and  _365
REMARK  144  A    between atoms: _367  and  _369
REMARK  145  A    between atoms: _369  and  _370
REMARK  146  A    between atoms: _369  and  _372
REMARK  147  A    between atoms: _372  and  _373
REMARK  148  A    between atoms: _378  and  _379
REMARK  149  A    between atoms: _381  and  _383
REMARK  150  A    between atoms: _383  and  _384
REMARK  151  A    between atoms: _383  and  _386
REMARK  152  A    between atoms: _386  and  _387
REMARK  153  A    between atoms: _387  and  _388
REMARK  154  A    between atoms: _388  and  _389
REMARK  155  A    between atoms: _398  and  _400
REMARK  156  A    between atoms: _400  and  _401
REMARK  157  A    between atoms: _400  and  _403
REMARK  158  A    between atoms: _403  and  _404
REMARK  159  A    between atoms: _407  and  _409
REMARK  160  A    between atoms: _409  and  _410
REMARK  161  A    between atoms: _409  and  _412
REMARK  162  A    between atoms: _412  and  _413
REMARK  163  A    between atoms: _413  and  _414
REMARK  164  A    between atoms: _414  and  _415
REMARK  165  A    between atoms: _415  and  _416
REMARK  166  A    between atoms: _420  and  _422
REMARK  167  A    between atoms: _422  and  _423
REMARK  168  A    between atoms: _425  and  _427
REMARK  169  A    between atoms: _427  and  _428
REMARK  170  A    between atoms: _431  and  _433
REMARK  171  A    between atoms: _433  and  _434
REMARK  172  A    between atoms: _433  and  _436
REMARK  173  A    between atoms: _436  and  _437
REMARK  174  A    between atoms: _442  and  _444
REMARK  175  A    between atoms: _444  and  _445
REMARK  176  A    between atoms: _448  and  _450
REMARK  177  A    between atoms: _450  and  _451
REMARK  178  A    between atoms: _454  and  _455
REMARK  179  A    between atoms: _460  and  _462
REMARK  180  A    between atoms: _462  and  _463
REMARK  181  A    between atoms: _462  and  _465
REMARK  182  A    between atoms: _465  and  _466
REMARK  183  A    between atoms: _469  and  _471
REMARK  184  A    between atoms: _471  and  _472
REMARK  185  A    between atoms: _471  and  _474
REMARK  186  A    between atoms: _474  and  _475
REMARK  187  A    between atoms: _485  and  _487
REMARK  188  A    between atoms: _487  and  _488
REMARK  189  A    between atoms: _487  and  _490
REMARK  190  A    between atoms: _490  and  _491
REMARK  191  A    between atoms: _497  and  _498
REMARK  192  A    between atoms: _503  and  _505
REMARK  193  A    between atoms: _505  and  _506
REMARK  194  A    between atoms: _505  and  _508
REMARK  195  A    between atoms: _508  and  _509
REMARK  196  A    between atoms: _514  and  _516
REMARK  197  A    between atoms: _516  and  _517
REMARK  198  A    between atoms: _516  and  _519
REMARK  199  A    between atoms: _522  and  _524
REMARK  200  A    between atoms: _524  and  _525
REMARK  201  A    between atoms: _524  and  _527
REMARK  202  A    between atoms: _527  and  _528
REMARK  203  A    between atoms: _528  and  _529
REMARK  204  A    between atoms: _535  and  _536
REMARK  205  A    between atoms: _541  and  _543
REMARK  206  A    between atoms: _543  and  _544
REMARK  207  A    between atoms: _543  and  _546
REMARK  208  A    between atoms: _546  and  _547
REMARK  209  A    between atoms: _550  and  _552
REMARK  210  A    between atoms: _552  and  _553
REMARK  211  A    between atoms: _552  and  _555
REMARK  212  A    between atoms: _555  and  _556
REMARK  213  A    between atoms: _558  and  _560
REMARK  214  A    between atoms: _560  and  _561
REMARK  215  A    between atoms: _560  and  _563
REMARK  216  A    between atoms: _563  and  _564
REMARK  217  A    between atoms: _569  and  _570
REMARK  218  A    between atoms: _572  and  _574
REMARK  219  A    between atoms: _574  and  _575
REMARK  220  A    between atoms: _574  and  _577
REMARK  221  A    between atoms: _577  and  _578
REMARK  222  A    between atoms: _588  and  _590
REMARK  223  A    between atoms: _590  and  _591
REMARK  224  A    between atoms: _593  and  _595
REMARK  225  A    between atoms: _595  and  _596
REMARK  226  A    between atoms: _599  and  _601
REMARK  227  A    between atoms: _601  and  _602
REMARK  228  A    between atoms: _601  and  _604
REMARK  229  A    between atoms: _604  and  _605
REMARK  230  A    between atoms: _610  and  _612
REMARK  231  A    between atoms: _612  and  _613
REMARK  232  A    between atoms: _616  and  _618
REMARK  233  A    between atoms: _618  and  _619
REMARK  234  A    between atoms: _622  and  _623
REMARK  235  A    between atoms: _628  and  _630
REMARK  236  A    between atoms: _630  and  _631
REMARK  237  A    between atoms: _630  and  _633
REMARK  238  A    between atoms: _633  and  _634
REMARK  239  A    between atoms: _637  and  _639
REMARK  240  A    between atoms: _639  and  _640
REMARK  241  A    between atoms: _639  and  _642
REMARK  242  A    between atoms: _642  and  _643
REMARK  243  A    between atoms: _653  and  _655
REMARK  244  A    between atoms: _655  and  _656
REMARK  245  A    between atoms: _655  and  _658
REMARK  246  A    between atoms: _658  and  _659
REMARK  247  A    between atoms: _664  and  _666
REMARK  248  A    between atoms: _666  and  _667
REMARK  249  A    between atoms: _666  and  _669
REMARK  250  A    between atoms: _669  and  _670
REMARK  251  A    between atoms: _673  and  _675
REMARK  252  A    between atoms: _675  and  _676
REMARK  253  A    between atoms: _675  and  _678
REMARK  254  A    between atoms: _678  and  _679
REMARK  255  A    between atoms: _679  and  _680
REMARK  256  A    between atoms: _683  and  _685
REMARK  257  A    between atoms: _685  and  _686
REMARK  258  A    between atoms: _685  and  _688
REMARK  259  A    between atoms: _688  and  _689
REMARK  260  A    between atoms: _689  and  _690
REMARK  261  A    between atoms: _690  and  _691
REMARK  262  A    between atoms: _691  and  _692
REMARK  263  A    between atoms: _696  and  _698
REMARK  264  A    between atoms: _698  and  _699
REMARK  265  A    between atoms: _698  and  _701
REMARK  266  A    between atoms: _701  and  _702
REMARK  267  A    between atoms: _707  and  _709
REMARK  268  A    between atoms: _709  and  _710
REMARK  269  A    between atoms: _709  and  _712
REMARK  270  A    between atoms: _712  and  _713
REMARK  271  A    between atoms: _713  and  _714
REMARK  272  A    between atoms: _714  and  _715
REMARK  273  A    between atoms: _724  and  _726
REMARK  274  A    between atoms: _726  and  _727
REMARK  275  A    between atoms: _726  and  _729
REMARK  276  A    between atoms: _729  and  _730
REMARK  277  A    between atoms: _733  and  _735
REMARK  278  A    between atoms: _735  and  _736
REMARK  279  A    between atoms: _735  and  _738
REMARK  280  A    between atoms: _741  and  _743
REMARK  281  A    between atoms: _743  and  _744
REMARK  282  A    between atoms: _743  and  _746
REMARK  283  A    between atoms: _746  and  _747
REMARK  284  A    between atoms: _747  and  _748
REMARK  285  A    between atoms: _754  and  _755
REMARK  286  A    between atoms: _760  and  _762
REMARK  287  A    between atoms: _762  and  _763
REMARK  288  A    between atoms: _762  and  _765
REMARK  289  A    between atoms: _765  and  _766
REMARK  290  A    between atoms: _769  and  _771
REMARK  291  A    between atoms: _771  and  _772
REMARK  292  A    between atoms: _771  and  _774
REMARK  293  A    between atoms: _774  and  _775
REMARK  294  A    between atoms: _775  and  _776
REMARK  295  A    between atoms: _776  and  _777
REMARK  296  A    between atoms: _786  and  _788
REMARK  297  A    between atoms: _788  and  _789
REMARK                            x       y       z     vdW  Elec       q    Type
REMARK                         _______ _______ _______ _____ _____    ______ ____
ROOT
ATOM      1  C   ASP A   3       5.775  23.210 -22.058  0.00  0.00    +0.241 C 
ATOM      2  N   VAL A   4       6.812  23.870 -21.546  0.00  0.00    -0.297 N 
ATOM      3  H   VAL A   4       6.664  24.499 -20.731  0.00  0.00    +0.150 HD
ATOM      4  O   ASP A   3       5.872  22.428 -23.005  0.00  0.00    -0.273 OA
ENDROOT
BRANCH   1   5
ATOM      5  CA  ASP A   3       4.432  23.465 -21.409  0.00  0.00    +0.160 C 
BRANCH   5   8
ATOM      6  C   ARG A   2       4.802  23.329 -19.005  0.00  0.00    +0.241 C 
ATOM      7  O   ARG A   2       4.761  22.094 -19.027  0.00  0.00    -0.273 OA
ATOM      8  N   ASP A   3       4.632  24.073 -20.095  0.00  0.00    -0.297 N 
ATOM      9  H   ASP A   3       4.642  25.109 -20.010  0.00  0.00    +0.150 HD
BRANCH   6  10
ATOM     10  CA  ARG A   2       5.034  24.077 -17.685  0.00  0.00    +0.149 C 
BRANCH  10  12
ATOM     11  C   HIS A   1       6.251  26.094 -18.413  0.00  0.00    +0.239 C 
ATOM     12  N   ARG A   2       5.186  25.535 -17.835  0.00  0.00    -0.297 N 
ATOM     13  H   ARG A   2       4.432  26.154 -17.475  0.00  0.00    +0.150 HD
ATOM     14  O   HIS A   1       7.151  25.433 -18.908  0.00  0.00    -0.274 OA
BRANCH  11  15
ATOM     15  CA  HIS A   1       6.288  27.636 -18.489  0.00  0.00    +0.151 C 
BRANCH  15  16
ATOM     16  N   HIS A   1       4.961  28.140 -18.847  0.00  0.00    -0.238 NA
ATOM     17  H   HIS A   1       4.507  28.843 -18.229  0.00  0.00    +0.142 HD
ENDBRANCH  15  16
BRANCH  15  18
ATOM     18  CB  HIS A   1       6.696  28.244 -17.142  0.00  0.00    +0.074 C 
BRANCH  18  19
ATOM     19  CG  HIS A   1       8.130  28.037 -16.776  0.00  0.00    +0.082 A 
ATOM     20  ND1 HIS A   1       8.635  28.394 -15.545  0.00  0.00    -0.227 NA
ATOM     21  CE1 HIS A   1       9.916  28.077 -15.489  0.00  0.00    +0.199 A 
ATOM     22  NE2 HIS A   1      10.260  27.529 -16.640  0.00  0.00    -0.221 NA
ATOM     23  CD2 HIS A   1       9.162  27.496 -17.465  0.00  0.00    +0.115 A 
ENDBRANCH  18  19
ENDBRANCH  15  18
ENDBRANCH  11  15
ENDBRANCH  10  12
BRANCH  10  24
ATOM     24  CB  ARG A   2       3.878  23.760 -16.731  0.00  0.00    +0.033 C 
BRANCH  24  25
ATOM     25  CG  ARG A   2       2.537  24.199 -17.291  0.00  0.00    +0.045 C 
BRANCH  25  26
ATOM     26  CD  ARG A   2       1.361  23.767 -16.432  0.00  0.00    +0.174 C 
BRANCH  26  27
ATOM     27  NE  ARG A   2       1.369  24.282 -15.060  0.00  0.00    -0.265 N 
ATOM     28  CZ  ARG A   2       0.318  24.189 -14.251  0.00  0.00    +0.342 C 
ATOM     29  NH2 ARG A   2       0.365  24.649 -13.007  0.00  0.00    -0.292 N 
ATOM     30 HH21 ARG A   2      -0.468  24.566 -12.390  0.00  0.00    +0.255 HD
ATOM     31 HH22 ARG A   2       1.235  25.092 -12.649  0.00  0.00    +0.255 HD
ATOM     32  NH1 ARG A   2      -0.790  23.618 -14.694  0.00  0.00    -0.292 N 
ATOM     33 HH11 ARG A   2      -1.619  23.539 -14.071  0.00  0.00    +0.255 HD
ATOM     34 HH12 ARG A   2      -0.832  23.248 -15.665  0.00  0.00    +0.255 HD
ATOM     35  HE  ARG A   2       2.233  24.739 -14.704  0.00  0.00    +0.259 HD
ENDBRANCH  26  27
ENDBRANCH  25  26
ENDBRANCH  24  25
ENDBRANCH  10  24
ENDBRANCH   6  10
ENDBRANCH   5   8
BRANCH   5  36
ATOM     36  CB  ASP A   3       3.630  24.375 -22.337  0.00  0.00    +0.143 C 
BRANCH  36  37
ATOM     37  CG  ASP A   3       2.173  24.472 -21.948  0.00  0.00    +0.367 C 
ATOM     38  OD2 ASP A   3       1.624  23.484 -21.404  0.00  0.00    -0.246 OA
ATOM     39  OD1 ASP A   3       1.567  25.539 -22.210  0.00  0.00    -0.246 OA
ENDBRANCH  36  37
ENDBRANCH   5  36
ENDBRANCH   1   5
BRANCH   2  40
ATOM     40  CA  VAL A   4       8.156  23.727 -22.108  0.00  0.00    +0.149 C 
BRANCH  40  41
ATOM     41  C   VAL A   4       9.193  23.303 -21.087  0.00  0.00    +0.241 C 
ATOM     42  N   GLN A   5       8.827  23.300 -19.818  0.00  0.00    -0.297 N 
ATOM     43  H   GLN A   5       7.862  23.590 -19.560  0.00  0.00    +0.150 HD
ATOM     44  O   VAL A   4      10.319  23.004 -21.435  0.00  0.00    -0.273 OA
BRANCH  42  45
ATOM     45  CA  GLN A   5       9.759  22.896 -18.780  0.00  0.00    +0.149 C 
BRANCH  45  46
ATOM     46  C   GLN A   5       8.968  22.223 -17.703  0.00  0.00    +0.244 C 
ATOM     47  N   PRO A   6       9.602  21.307 -16.970  0.00  0.00    -0.272 N 
ATOM     48  CA  PRO A   6       8.866  20.645 -15.897  0.00  0.00    +0.152 C 
ATOM     49  CB  PRO A   6       9.667  19.362 -15.686  0.00  0.00    +0.031 C 
ATOM     50  CG  PRO A   6      11.051  19.863 -15.849  0.00  0.00    +0.024 C 
ATOM     51  CD  PRO A   6      10.946  20.725 -17.111  0.00  0.00    +0.094 C 
ATOM     52  O   GLN A   5       7.786  22.509 -17.523  0.00  0.00    -0.273 OA
BRANCH  48  53
ATOM     53  C   PRO A   6       8.865  21.586 -14.682  0.00  0.00    +0.241 C 
ATOM     54  O   PRO A   6       9.917  21.860 -14.083  0.00  0.00    -0.273 OA
ATOM     55  N   THR A   7       7.673  22.068 -14.339  0.00  0.00    -0.296 N 
ATOM     56  H   THR A   7       6.838  21.749 -14.871  0.00  0.00    +0.150 HD
BRANCH  55  57
ATOM     57  CA  THR A   7       7.483  23.020 -13.255  0.00  0.00    +0.164 C 
BRANCH  57  58
ATOM     58  C   THR A   7       5.984  23.229 -13.171  0.00  0.00    +0.229 C 
ATOM     59  O   THR A   7       5.257  22.934 -14.126  0.00  0.00    -0.286 OA
ENDBRANCH  57  58
BRANCH  57  60
ATOM     60  CB  THR A   7       8.101  24.383 -13.621  0.00  0.00    +0.136 C 
ATOM     61  CG2 THR A   7       7.582  24.821 -14.995  0.00  0.00    +0.034 C 
BRANCH  60  62
ATOM     62  OG1 THR A   7       7.714  25.375 -12.660  0.00  0.00    -0.382 OA
ATOM     63  HG1 THR A   7       8.117  26.245 -12.906  0.00  0.00    +0.210 HD
ENDBRANCH  60  62
ENDBRANCH  57  60
ENDBRANCH  55  57
ENDBRANCH  48  53
ENDBRANCH  45  46
BRANCH  45  64
ATOM     64  CB  GLN A   5      10.447  24.107 -18.163  0.00  0.00    +0.039 C 
BRANCH  64  65
ATOM     65  CG  GLN A   5      11.234  24.893 -19.133  0.00  0.00    +0.087 C 
BRANCH  65  66
ATOM     66  CD  GLN A   5      12.645  24.370 -19.274  0.00  0.00    +0.219 C 
ATOM     67  NE2 GLN A   5      13.575  25.055 -18.637  0.00  0.00    -0.329 N 
ATOM     68 HE21 GLN A   5      13.330  25.947 -18.161  0.00  0.00    +0.145 HD
ATOM     69 HE22 GLN A   5      14.553  24.703 -18.611  0.00  0.00    +0.145 HD
ATOM     70  OE1 GLN A   5      12.862  23.321 -19.851  0.00  0.00    -0.275 OA
ENDBRANCH  65  66
ENDBRANCH  64  65
ENDBRANCH  45  64
ENDBRANCH  42  45
ENDBRANCH  40  41
BRANCH  40  71
ATOM     71  CB  VAL A   4       8.660  25.045 -22.770  0.00  0.00    +0.027 C 
ATOM     72  CG2 VAL A   4       8.788  26.145 -21.731  0.00  0.00    +0.002 C 
ATOM     73  CG1 VAL A   4       7.705  25.474 -23.896  0.00  0.00    +0.002 C 
ENDBRANCH  40  71
ENDBRANCH   2  40
TORSDOF 27
REMARK  Name = ../refined-set-2016/3o4k/3o4k_pocket.pdb
REMARK  297 active torsions:
REMARK  status: ('A' for Active; 'I' for Inactive)
REMARK    1  A    between atoms: _1  and  _3
REMARK    2  A    between atoms: _3  and  _4
REMARK    3  A    between atoms: _3  and  _6
REMARK    4  A    between atoms: _6  and  _7
REMARK    5  A    between atoms: _7  and  _8
REMARK    6  A    between atoms: _8  and  _9
REMARK    7  A    between atoms: _18  and  _20
REMARK    8  A    between atoms: _20  and  _21
REMARK    9  A    between atoms: _20  and  _23
REMARK   10  A    between atoms: _23  and  _24
REMARK   11  A    between atoms: _29  and  _30
REMARK   12  A    between atoms: _32  and  _34
REMARK   13  A    between atoms: _34  and  _35
REMARK   14  A    between atoms: _34  and  _37
REMARK   15  A    between atoms: _37  and  _38
REMARK   16  A    between atoms: _48  and  _50
REMARK   17  A    between atoms: _50  and  _51
REMARK   18  A    between atoms: _50  and  _53
REMARK   19  A    between atoms: _53  and  _54
REMARK   20  A    between atoms: _54  and  _55
REMARK   21  A    between atoms: _55  and  _56
REMARK   22  A    between atoms: _65  and  _67
REMARK   23  A    between atoms: _67  and  _68
REMARK   24  A    between atoms: _67  and  _70
REMARK   25  A    between atoms: _70  and  _71
REMARK   26  A    between atoms: _73  and  _75
REMARK   27  A    between atoms: _75  and  _76
REMARK   28  A    between atoms: _75  and  _78
REMARK   29  A    between atoms: _78  and  _79
REMARK   30  A    between atoms: _84  and  _86
REMARK   31  A    between atoms: _86  and  _87
REMARK   32  A    between atoms: _86  and  _89
REMARK   33  A    between atoms: _89  and  _90
REMARK   34  A    between atoms: _95  and  _96
REMARK   35  A    between atoms: _98  and  _100
REMARK   36  A    between atoms: _100  and  _101
REMARK   37  A    between atoms: _100  and  _103
REMARK   38  A    between atoms: _103  and  _104
REMARK   39  A    between atoms: _104  and  _105
REMARK   40  A    between atoms: _108  and  _110
REMARK   41  A    between atoms: _110  and  _111
REMARK   42  A    between atoms: _110  and  _113
REMARK   43  A    between atoms: _116  and  _118
REMARK   44  A    between atoms: _118  and  _119
REMARK   45  A    between atoms: _118  and  _121
REMARK   46  A    between atoms: _121  and  _122
REMARK   47  A    between atoms: _122  and  _123
REMARK   48  A    between atoms: _123  and  _124
REMARK   49  A    between atoms: _124  and  _125
REMARK   50  A    between atoms: _129  and  _131
REMARK   51  A    between atoms: _131  and  _132
REMARK   52  A    between atoms: _131  and  _134
REMARK   53  A    between atoms: _134  and  _135
REMARK   54  A    between atoms: _140  and  _142
REMARK   55  A    between atoms: _142  and  _143
REMARK   56  A    between atoms: _142  and  _145
REMARK   57  A    between atoms: _145  and  _146
REMARK   58  A    between atoms: _151  and  _152
REMARK   59  A    between atoms: _154  and  _156
REMARK   60  A    between atoms: _156  and  _157
REMARK   61  A    between atoms: _156  and  _159
REMARK   62  A    between atoms: _159  and  _160
REMARK   63  A    between atoms: _160  and  _161
REMARK   64  A    between atoms: _161  and  _162
REMARK   65  A    between atoms: _171  and  _173
REMARK   66  A    between atoms: _173  and  _174
REMARK   67  A    between atoms: _178  and  _180
REMARK   68  A    between atoms: _180  and  _181
REMARK   69  A    between atoms: _180  and  _183
REMARK   70  A    between atoms: _183  and  _184
REMARK   71  A    between atoms: _186  and  _188
REMARK   72  A    between atoms: _188  and  _189
REMARK   73  A    between atoms: _188  and  _191
REMARK   74  A    between atoms: _191  and  _192
REMARK   75  A    between atoms: _192  and  _193
REMARK   76  A    between atoms: _196  and  _198
REMARK   77  A    between atoms: _198  and  _199
REMARK   78  A    between atoms: _198  and  _201
REMARK   79  A    between atoms: _201  and  _202
REMARK   80  A    between atoms: _202  and  _352
REMARK   81  A    between atoms: _203  and  _205
REMARK   82  A    between atoms: _205  and  _206
REMARK   83  A    between atoms: _205  and  _208
REMARK   84  A    between atoms: _208  and  _209
REMARK   85  A    between atoms: _209  and  _210
REMARK   86  A    between atoms: _210  and  _211
REMARK   87  A    between atoms: _220  and  _222
REMARK   88  A    between atoms: _222  and  _223
REMARK   89  A    between atoms: _222  and  _225
REMARK   90  A    between atoms: _225  and  _226
REMARK   91  A    between atoms: _226  and  _227
REMARK   92  A    between atoms: _230  and  _232
REMARK   93  A    between atoms: _232  and  _233
REMARK   94  A    between atoms: _232  and  _235
REMARK   95  A    between atoms: _235  and  _236
REMARK   96  A    between atoms: _236  and  _237
REMARK   97  A    between atoms: _237  and  _238
REMARK   98  A    between atoms: _247  and  _249
REMARK   99  A    between atoms: _249  and  _250
REMARK  100  A    between atoms: _249  and  _252
REMARK  101  A    between atoms: _252  and  _253
REMARK  102  A    between atoms: _255  and  _257
REMARK  103  A    between atoms: _257  and  _258
REMARK  104  A    between atoms: _257  and  _260
REMARK  105  A    between atoms: _260  and  _261
REMARK  106  A    between atoms: _266  and  _267
REMARK  107  A    between atoms: _269  and  _271
REMARK  108  A    between atoms: _271  and  _272
REMARK  109  A    between atoms: _271  and  _274
REMARK  110  A    between atoms: _274  and  _275
REMARK  111  A    between atoms: _280  and  _282
REMARK  112  A    between atoms: _282  and  _283
REMARK  113  A    between atoms: _282  and  _285
REMARK  114  A    between atoms: _288  and  _290
REMARK  115  A    between atoms: _290  and  _291
REMARK  116  A    between atoms: _290  and  _293
REMARK  117  A    between atoms: _293  and  _294
REMARK  118  A    between atoms: _294  and  _295
REMARK  119  A    between atoms: _295  and  _296
REMARK  120  A    between atoms: _305  and  _307
REMARK  121  A    between atoms: _307  and  _308
REMARK  122  A    between atoms: _307  and  _310
REMARK  123  A    between atoms: _310  and  _311
REMARK  124  A    between atoms: _316  and  _318
REMARK  125  A    between atoms: _318  and  _319
REMARK  126  A    between atoms: _318  and  _321
REMARK  127  A    between atoms: _321  and  _322
REMARK  128  A    between atoms: _325  and  _327
REMARK  129  A    between atoms: _327  and  _328
REMARK  130  A    between atoms: _330  and  _332
REMARK  131  A    between atoms: _332  and  _333
REMARK  132  A    between atoms: _332  and  _335
REMARK  133  A    between atoms: _335  and  _336
REMARK  134  A    between atoms: _346  and  _348
REMARK  135  A    between atoms: _348  and  _349
REMARK  136  A    between atoms: _348  and  _351
REMARK  137  A    between atoms: _351  and  _352
REMARK  138  A    between atoms: _353  and  _355
REMARK  139  A    between atoms: _355  and  _356
REMARK  140  A    between atoms: _355  and  _358
REMARK  141  A    between atoms: _358  and  _359
REMARK  142  A    between atoms: _362  and  _364
REMARK  143  A    between atoms: _364  and  _365
REMARK  144  A    between atoms: _367  and  _369
REMARK  145  A    between atoms: _369  and  _370
REMARK  146  A    between atoms: _369  and  _372
REMARK  147  A    between atoms: _372  and  _373
REMARK  148  A    between atoms: _378  and  _379
REMARK  149  A    between atoms: _381  and  _383
REMARK  150  A    between atoms: _383  and  _384
REMARK  151  A    between atoms: _383  and  _386
REMARK  152  A    between atoms: _386  and  _387
REMARK  153  A    between atoms: _387  and  _388
REMARK  154  A    between atoms: _388  and  _389
REMARK  155  A    between atoms: _398  and  _400
REMARK  156  A    between atoms: _400  and  _401
REMARK  157  A    between atoms: _400  and  _403
REMARK  158  A    between atoms: _403  and  _404
REMARK  159  A    between atoms: _407  and  _409
REMARK  160  A    between atoms: _409  and  _410
REMARK  161  A    between atoms: _409  and  _412
REMARK  162  A    between atoms: _412  and  _413
REMARK  163  A    between atoms: _413  and  _414
REMARK  164  A    between atoms: _414  and  _415
REMARK  165  A    between atoms: _415  and  _416
REMARK  166  A    between atoms: _420  and  _422
REMARK  167  A    between atoms: _422  and  _423
REMARK  168  A    between atoms: _425  and  _427
REMARK  169  A    between atoms: _427  and  _428
REMARK  170  A    between atoms: _431  and  _433
REMARK  171  A    between atoms: _433  and  _434
REMARK  172  A    between atoms: _433  and  _436
REMARK  173  A    between atoms: _436  and  _437
REMARK  174  A    between atoms: _442  and  _444
REMARK  175  A    between atoms: _444  and  _445
REMARK  176  A    between atoms: _448  and  _450
REMARK  177  A    between atoms: _450  and  _451
REMARK  178  A    between atoms: _454  and  _455
REMARK  179  A    between atoms: _460  and  _462
REMARK  180  A    between atoms: _462  and  _463
REMARK  181  A    between atoms: _462  and  _465
REMARK  182  A    between atoms: _465  and  _466
REMARK  183  A    between atoms: _469  and  _471
REMARK  184  A    between atoms: _471  and  _472
REMARK  185  A    between atoms: _471  and  _474
REMARK  186  A    between atoms: _474  and  _475
REMARK  187  A    between atoms: _485  and  _487
REMARK  188  A    between atoms: _487  and  _488
REMARK  189  A    between atoms: _487  and  _490
REMARK  190  A    between atoms: _490  and  _491
REMARK  191  A    between atoms: _497  and  _498
REMARK  192  A    between atoms: _503  and  _505
REMARK  193  A    between atoms: _505  and  _506
REMARK  194  A    between atoms: _505  and  _508
REMARK  195  A    between atoms: _508  and  _509
REMARK  196  A    between atoms: _514  and  _516
REMARK  197  A    between atoms: _516  and  _517
REMARK  198  A    between atoms: _516  and  _519
REMARK  199  A    between atoms: _522  and  _524
REMARK  200  A    between atoms: _524  and  _525
REMARK  201  A    between atoms: _524  and  _527
REMARK  202  A    between atoms: _527  and  _528
REMARK  203  A    between atoms: _528  and  _529
REMARK  204  A    between atoms: _535  and  _536
REMARK  205  A    between atoms: _541  and  _543
REMARK  206  A    between atoms: _543  and  _544
REMARK  207  A    between atoms: _543  and  _546
REMARK  208  A    between atoms: _546  and  _547
REMARK  209  A    between atoms: _550  and  _552
REMARK  210  A    between atoms: _552  and  _553
REMARK  211  A    between atoms: _552  and  _555
REMARK  212  A    between atoms: _555  and  _556
REMARK  213  A    between atoms: _558  and  _560
REMARK  214  A    between atoms: _560  and  _561
REMARK  215  A    between atoms: _560  and  _563
REMARK  216  A    between atoms: _563  and  _564
REMARK  217  A    between atoms: _569  and  _570
REMARK  218  A    between atoms: _572  and  _574
REMARK  219  A    between atoms: _574  and  _575
REMARK  220  A    between atoms: _574  and  _577
REMARK  221  A    between atoms: _577  and  _578
REMARK  222  A    between atoms: _588  and  _590
REMARK  223  A    between atoms: _590  and  _591
REMARK  224  A    between atoms: _593  and  _595
REMARK  225  A    between atoms: _595  and  _596
REMARK  226  A    between atoms: _599  and  _601
REMARK  227  A    between atoms: _601  and  _602
REMARK  228  A    between atoms: _601  and  _604
REMARK  229  A    between atoms: _604  and  _605
REMARK  230  A    between atoms: _610  and  _612
REMARK  231  A    between atoms: _612  and  _613
REMARK  232  A    between atoms: _616  and  _618
REMARK  233  A    between atoms: _618  and  _619
REMARK  234  A    between atoms: _622  and  _623
REMARK  235  A    between atoms: _628  and  _630
REMARK  236  A    between atoms: _630  and  _631
REMARK  237  A    between atoms: _630  and  _633
REMARK  238  A    between atoms: _633  and  _634
REMARK  239  A    between atoms: _637  and  _639
REMARK  240  A    between atoms: _639  and  _640
REMARK  241  A    between atoms: _639  and  _642
REMARK  242  A    between atoms: _642  and  _643
REMARK  243  A    between atoms: _653  and  _655
REMARK  244  A    between atoms: _655  and  _656
REMARK  245  A    between atoms: _655  and  _658
REMARK  246  A    between atoms: _658  and  _659
REMARK  247  A    between atoms: _664  and  _666
REMARK  248  A    between atoms: _666  and  _667
REMARK  249  A    between atoms: _666  and  _669
REMARK  250  A    between atoms: _669  and  _670
REMARK  251  A    between atoms: _673  and  _675
REMARK  252  A    between atoms: _675  and  _676
REMARK  253  A    between atoms: _675  and  _678
REMARK  254  A    between atoms: _678  and  _679
REMARK  255  A    between atoms: _679  and  _680
REMARK  256  A    between atoms: _683  and  _685
REMARK  257  A    between atoms: _685  and  _686
REMARK  258  A    between atoms: _685  and  _688
REMARK  259  A    between atoms: _688  and  _689
REMARK  260  A    between atoms: _689  and  _690
REMARK  261  A    between atoms: _690  and  _691
REMARK  262  A    between atoms: _691  and  _692
REMARK  263  A    between atoms: _696  and  _698
REMARK  264  A    between atoms: _698  and  _699
REMARK  265  A    between atoms: _698  and  _701
REMARK  266  A    between atoms: _701  and  _702
REMARK  267  A    between atoms: _707  and  _709
REMARK  268  A    between atoms: _709  and  _710
REMARK  269  A    between atoms: _709  and  _712
REMARK  270  A    between atoms: _712  and  _713
REMARK  271  A    between atoms: _713  and  _714
REMARK  272  A    between atoms: _714  and  _715
REMARK  273  A    between atoms: _724  and  _726
REMARK  274  A    between atoms: _726  and  _727
REMARK  275  A    between atoms: _726  and  _729
REMARK  276  A    between atoms: _729  and  _730
REMARK  277  A    between atoms: _733  and  _735
REMARK  278  A    between atoms: _735  and  _736
REMARK  279  A    between atoms: _735  and  _738
REMARK  280  A    between atoms: _741  and  _743
REMARK  281  A    between atoms: _743  and  _744
REMARK  282  A    between atoms: _743  and  _746
REMARK  283  A    between atoms: _746  and  _747
REMARK  284  A    between atoms: _747  and  _748
REMARK  285  A    between atoms: _754  and  _755
REMARK  286  A    between atoms: _760  and  _762
REMARK  287  A    between atoms: _762  and  _763
REMARK  288  A    between atoms: _762  and  _765
REMARK  289  A    between atoms: _765  and  _766
REMARK  290  A    between atoms: _769  and  _771
REMARK  291  A    between atoms: _771  and  _772
REMARK  292  A    between atoms: _771  and  _774
REMARK  293  A    between atoms: _774  and  _775
REMARK  294  A    between atoms: _775  and  _776
REMARK  295  A    between atoms: _776  and  _777
REMARK  296  A    between atoms: _786  and  _788
REMARK  297  A    between atoms: _788  and  _789
REMARK                            x       y       z     vdW  Elec       q    Type
REMARK                         _______ _______ _______ _____ _____    ______ ____
ROOT
ATOM      1  CB  ARG A   1      -0.113  27.751 -29.938  0.00  0.00    +0.030 C 
ENDROOT
BRANCH   1   2
ATOM      2  CA  ARG A   1      -0.741  27.371 -28.599  0.00  0.00    +0.145 C 
BRANCH   2   3
ATOM      3  C   ARG A   1       0.167  26.410 -27.821  0.00  0.00    +0.238 C 
ATOM      4  N   ALA A   2      -0.432  25.380 -27.227  0.00  0.00    -0.298 N 
ATOM      5  H   ALA A   2      -1.460  25.268 -27.339  0.00  0.00    +0.150 HD
ATOM      6  O   ARG A   1       1.379  26.608 -27.751  0.00  0.00    -0.274 OA
BRANCH   4   7
ATOM      7  CA  ALA A   2       0.298  24.398 -26.423  0.00  0.00    +0.137 C 
ATOM      8  CB  ALA A   2      -0.694  23.524 -25.652  0.00  0.00    +0.030 C 
BRANCH   7   9
ATOM      9  C   ALA A   2       1.234  23.522 -27.255  0.00  0.00    +0.227 C 
ATOM     10  O   ALA A   2       2.013  22.739 -26.701  0.00  0.00    -0.286 OA
ENDBRANCH   7   9
ENDBRANCH   4   7
ENDBRANCH   2   3
BRANCH   2  11
ATOM     11  N   ARG A   1      -0.880  28.556 -27.766  0.00  0.00    -0.238 NA
ATOM     12  H   ARG A   1      -0.116  28.796 -27.102  0.00  0.00    +0.142 HD
ENDBRANCH   2  11
ENDBRANCH   1   2
BRANCH   1  13
ATOM     13  CG  ARG A   1      -0.507  26.839 -31.071  0.00  0.00    +0.045 C 
BRANCH  13  14
ATOM     14  CD  ARG A   1       0.105  27.292 -32.367  0.00  0.00    +0.174 C 
BRANCH  14  15
ATOM     15  NE  ARG A   1       0.202  26.186 -33.307  0.00  0.00    -0.265 N 
ATOM     16  HE  ARG A   1      -0.407  25.357 -33.154  0.00  0.00    +0.259 HD
ATOM     17  CZ  ARG A   1       1.023  26.175 -34.348  0.00  0.00    +0.342 C 
ATOM     18  NH2 ARG A   1       1.811  27.217 -34.565  0.00  0.00    -0.292 N 
ATOM     19 HH21 ARG A   1       1.782  28.034 -33.922  0.00  0.00    +0.255 HD
ATOM     20 HH22 ARG A   1       2.459  27.219 -35.379  0.00  0.00    +0.255 HD
ATOM     21  NH1 ARG A   1       1.063  25.128 -35.164  0.00  0.00    -0.292 N 
ATOM     22 HH11 ARG A   1       0.447  24.308 -34.989  0.00  0.00    +0.255 HD
ATOM     23 HH12 ARG A   1       1.710  25.128 -35.978  0.00  0.00    +0.255 HD
ENDBRANCH  14  15
ENDBRANCH  13  14
ENDBRANCH   1  13
TORSDOF 8
REMARK  Name = ../refined-set-2016/3o4k/3o4k_pocket.pdb
REMARK  297 active torsions:
REMARK  status: ('A' for Active; 'I' for Inactive)
REMARK    1  A    between atoms: _1  and  _3
REMARK    2  A    between atoms: _3  and  _4
REMARK    3  A    between atoms: _3  and  _6
REMARK    4  A    between atoms: _6  and  _7
REMARK    5  A    between atoms: _7  and  _8
REMARK    6  A    between atoms: _8  and  _9
REMARK    7  A    between atoms: _18  and  _20
REMARK    8  A    between atoms: _20  and  _21
REMARK    9  A    between atoms: _20  and  _23
REMARK   10  A    between atoms: _23  and  _24
REMARK   11  A    between atoms: _29  and  _30
REMARK   12  A    between atoms: _32  and  _34
REMARK   13  A    between atoms: _34  and  _35
REMARK   14  A    between atoms: _34  and  _37
REMARK   15  A    between atoms: _37  and  _38
REMARK   16  A    between atoms: _48  and  _50
REMARK   17  A    between atoms: _50  and  _51
REMARK   18  A    between atoms: _50  and  _53
REMARK   19  A    between atoms: _53  and  _54
REMARK   20  A    between atoms: _54  and  _55
REMARK   21  A    between atoms: _55  and  _56
REMARK   22  A    between atoms: _65  and  _67
REMARK   23  A    between atoms: _67  and  _68
REMARK   24  A    between atoms: _67  and  _70
REMARK   25  A    between atoms: _70  and  _71
REMARK   26  A    between atoms: _73  and  _75
REMARK   27  A    between atoms: _75  and  _76
REMARK   28  A    between atoms: _75  and  _78
REMARK   29  A    between atoms: _78  and  _79
REMARK   30  A    between atoms: _84  and  _86
REMARK   31  A    between atoms: _86  and  _87
REMARK   32  A    between atoms: _86  and  _89
REMARK   33  A    between atoms: _89  and  _90
REMARK   34  A    between atoms: _95  and  _96
REMARK   35  A    between atoms: _98  and  _100
REMARK   36  A    between atoms: _100  and  _101
REMARK   37  A    between atoms: _100  and  _103
REMARK   38  A    between atoms: _103  and  _104
REMARK   39  A    between atoms: _104  and  _105
REMARK   40  A    between atoms: _108  and  _110
REMARK   41  A    between atoms: _110  and  _111
REMARK   42  A    between atoms: _110  and  _113
REMARK   43  A    between atoms: _116  and  _118
REMARK   44  A    between atoms: _118  and  _119
REMARK   45  A    between atoms: _118  and  _121
REMARK   46  A    between atoms: _121  and  _122
REMARK   47  A    between atoms: _122  and  _123
REMARK   48  A    between atoms: _123  and  _124
REMARK   49  A    between atoms: _124  and  _125
REMARK   50  A    between atoms: _129  and  _131
REMARK   51  A    between atoms: _131  and  _132
REMARK   52  A    between atoms: _131  and  _134
REMARK   53  A    between atoms: _134  and  _135
REMARK   54  A    between atoms: _140  and  _142
REMARK   55  A    between atoms: _142  and  _143
REMARK   56  A    between atoms: _142  and  _145
REMARK   57  A    between atoms: _145  and  _146
REMARK   58  A    between atoms: _151  and  _152
REMARK   59  A    between atoms: _154  and  _156
REMARK   60  A    between atoms: _156  and  _157
REMARK   61  A    between atoms: _156  and  _159
REMARK   62  A    between atoms: _159  and  _160
REMARK   63  A    between atoms: _160  and  _161
REMARK   64  A    between atoms: _161  and  _162
REMARK   65  A    between atoms: _171  and  _173
REMARK   66  A    between atoms: _173  and  _174
REMARK   67  A    between atoms: _178  and  _180
REMARK   68  A    between atoms: _180  and  _181
REMARK   69  A    between atoms: _180  and  _183
REMARK   70  A    between atoms: _183  and  _184
REMARK   71  A    between atoms: _186  and  _188
REMARK   72  A    between atoms: _188  and  _189
REMARK   73  A    between atoms: _188  and  _191
REMARK   74  A    between atoms: _191  and  _192
REMARK   75  A    between atoms: _192  and  _193
REMARK   76  A    between atoms: _196  and  _198
REMARK   77  A    between atoms: _198  and  _199
REMARK   78  A    between atoms: _198  and  _201
REMARK   79  A    between atoms: _201  and  _202
REMARK   80  A    between atoms: _202  and  _352
REMARK   81  A    between atoms: _203  and  _205
REMARK   82  A    between atoms: _205  and  _206
REMARK   83  A    between atoms: _205  and  _208
REMARK   84  A    between atoms: _208  and  _209
REMARK   85  A    between atoms: _209  and  _210
REMARK   86  A    between atoms: _210  and  _211
REMARK   87  A    between atoms: _220  and  _222
REMARK   88  A    between atoms: _222  and  _223
REMARK   89  A    between atoms: _222  and  _225
REMARK   90  A    between atoms: _225  and  _226
REMARK   91  A    between atoms: _226  and  _227
REMARK   92  A    between atoms: _230  and  _232
REMARK   93  A    between atoms: _232  and  _233
REMARK   94  A    between atoms: _232  and  _235
REMARK   95  A    between atoms: _235  and  _236
REMARK   96  A    between atoms: _236  and  _237
REMARK   97  A    between atoms: _237  and  _238
REMARK   98  A    between atoms: _247  and  _249
REMARK   99  A    between atoms: _249  and  _250
REMARK  100  A    between atoms: _249  and  _252
REMARK  101  A    between atoms: _252  and  _253
REMARK  102  A    between atoms: _255  and  _257
REMARK  103  A    between atoms: _257  and  _258
REMARK  104  A    between atoms: _257  and  _260
REMARK  105  A    between atoms: _260  and  _261
REMARK  106  A    between atoms: _266  and  _267
REMARK  107  A    between atoms: _269  and  _271
REMARK  108  A    between atoms: _271  and  _272
REMARK  109  A    between atoms: _271  and  _274
REMARK  110  A    between atoms: _274  and  _275
REMARK  111  A    between atoms: _280  and  _282
REMARK  112  A    between atoms: _282  and  _283
REMARK  113  A    between atoms: _282  and  _285
REMARK  114  A    between atoms: _288  and  _290
REMARK  115  A    between atoms: _290  and  _291
REMARK  116  A    between atoms: _290  and  _293
REMARK  117  A    between atoms: _293  and  _294
REMARK  118  A    between atoms: _294  and  _295
REMARK  119  A    between atoms: _295  and  _296
REMARK  120  A    between atoms: _305  and  _307
REMARK  121  A    between atoms: _307  and  _308
REMARK  122  A    between atoms: _307  and  _310
REMARK  123  A    between atoms: _310  and  _311
REMARK  124  A    between atoms: _316  and  _318
REMARK  125  A    between atoms: _318  and  _319
REMARK  126  A    between atoms: _318  and  _321
REMARK  127  A    between atoms: _321  and  _322
REMARK  128  A    between atoms: _325  and  _327
REMARK  129  A    between atoms: _327  and  _328
REMARK  130  A    between atoms: _330  and  _332
REMARK  131  A    between atoms: _332  and  _333
REMARK  132  A    between atoms: _332  and  _335
REMARK  133  A    between atoms: _335  and  _336
REMARK  134  A    between atoms: _346  and  _348
REMARK  135  A    between atoms: _348  and  _349
REMARK  136  A    between atoms: _348  and  _351
REMARK  137  A    between atoms: _351  and  _352
REMARK  138  A    between atoms: _353  and  _355
REMARK  139  A    between atoms: _355  and  _356
REMARK  140  A    between atoms: _355  and  _358
REMARK  141  A    between atoms: _358  and  _359
REMARK  142  A    between atoms: _362  and  _364
REMARK  143  A    between atoms: _364  and  _365
REMARK  144  A    between atoms: _367  and  _369
REMARK  145  A    between atoms: _369  and  _370
REMARK  146  A    between atoms: _369  and  _372
REMARK  147  A    between atoms: _372  and  _373
REMARK  148  A    between atoms: _378  and  _379
REMARK  149  A    between atoms: _381  and  _383
REMARK  150  A    between atoms: _383  and  _384
REMARK  151  A    between atoms: _383  and  _386
REMARK  152  A    between atoms: _386  and  _387
REMARK  153  A    between atoms: _387  and  _388
REMARK  154  A    between atoms: _388  and  _389
REMARK  155  A    between atoms: _398  and  _400
REMARK  156  A    between atoms: _400  and  _401
REMARK  157  A    between atoms: _400  and  _403
REMARK  158  A    between atoms: _403  and  _404
REMARK  159  A    between atoms: _407  and  _409
REMARK  160  A    between atoms: _409  and  _410
REMARK  161  A    between atoms: _409  and  _412
REMARK  162  A    between atoms: _412  and  _413
REMARK  163  A    between atoms: _413  and  _414
REMARK  164  A    between atoms: _414  and  _415
REMARK  165  A    between atoms: _415  and  _416
REMARK  166  A    between atoms: _420  and  _422
REMARK  167  A    between atoms: _422  and  _423
REMARK  168  A    between atoms: _425  and  _427
REMARK  169  A    between atoms: _427  and  _428
REMARK  170  A    between atoms: _431  and  _433
REMARK  171  A    between atoms: _433  and  _434
REMARK  172  A    between atoms: _433  and  _436
REMARK  173  A    between atoms: _436  and  _437
REMARK  174  A    between atoms: _442  and  _444
REMARK  175  A    between atoms: _444  and  _445
REMARK  176  A    between atoms: _448  and  _450
REMARK  177  A    between atoms: _450  and  _451
REMARK  178  A    between atoms: _454  and  _455
REMARK  179  A    between atoms: _460  and  _462
REMARK  180  A    between atoms: _462  and  _463
REMARK  181  A    between atoms: _462  and  _465
REMARK  182  A    between atoms: _465  and  _466
REMARK  183  A    between atoms: _469  and  _471
REMARK  184  A    between atoms: _471  and  _472
REMARK  185  A    between atoms: _471  and  _474
REMARK  186  A    between atoms: _474  and  _475
REMARK  187  A    between atoms: _485  and  _487
REMARK  188  A    between atoms: _487  and  _488
REMARK  189  A    between atoms: _487  and  _490
REMARK  190  A    between atoms: _490  and  _491
REMARK  191  A    between atoms: _497  and  _498
REMARK  192  A    between atoms: _503  and  _505
REMARK  193  A    between atoms: _505  and  _506
REMARK  194  A    between atoms: _505  and  _508
REMARK  195  A    between atoms: _508  and  _509
REMARK  196  A    between atoms: _514  and  _516
REMARK  197  A    between atoms: _516  and  _517
REMARK  198  A    between atoms: _516  and  _519
REMARK  199  A    between atoms: _522  and  _524
REMARK  200  A    between atoms: _524  and  _525
REMARK  201  A    between atoms: _524  and  _527
REMARK  202  A    between atoms: _527  and  _528
REMARK  203  A    between atoms: _528  and  _529
REMARK  204  A    between atoms: _535  and  _536
REMARK  205  A    between atoms: _541  and  _543
REMARK  206  A    between atoms: _543  and  _544
REMARK  207  A    between atoms: _543  and  _546
REMARK  208  A    between atoms: _546  and  _547
REMARK  209  A    between atoms: _550  and  _552
REMARK  210  A    between atoms: _552  and  _553
REMARK  211  A    between atoms: _552  and  _555
REMARK  212  A    between atoms: _555  and  _556
REMARK  213  A    between atoms: _558  and  _560
REMARK  214  A    between atoms: _560  and  _561
REMARK  215  A    between atoms: _560  and  _563
REMARK  216  A    between atoms: _563  and  _564
REMARK  217  A    between atoms: _569  and  _570
REMARK  218  A    between atoms: _572  and  _574
REMARK  219  A    between atoms: _574  and  _575
REMARK  220  A    between atoms: _574  and  _577
REMARK  221  A    between atoms: _577  and  _578
REMARK  222  A    between atoms: _588  and  _590
REMARK  223  A    between atoms: _590  and  _591
REMARK  224  A    between atoms: _593  and  _595
REMARK  225  A    between atoms: _595  and  _596
REMARK  226  A    between atoms: _599  and  _601
REMARK  227  A    between atoms: _601  and  _602
REMARK  228  A    between atoms: _601  and  _604
REMARK  229  A    between atoms: _604  and  _605
REMARK  230  A    between atoms: _610  and  _612
REMARK  231  A    between atoms: _612  and  _613
REMARK  232  A    between atoms: _616  and  _618
REMARK  233  A    between atoms: _618  and  _619
REMARK  234  A    between atoms: _622  and  _623
REMARK  235  A    between atoms: _628  and  _630
REMARK  236  A    between atoms: _630  and  _631
REMARK  237  A    between atoms: _630  and  _633
REMARK  238  A    between atoms: _633  and  _634
REMARK  239  A    between atoms: _637  and  _639
REMARK  240  A    between atoms: _639  and  _640
REMARK  241  A    between atoms: _639  and  _642
REMARK  242  A    between atoms: _642  and  _643
REMARK  243  A    between atoms: _653  and  _655
REMARK  244  A    between atoms: _655  and  _656
REMARK  245  A    between atoms: _655  and  _658
REMARK  246  A    between atoms: _658  and  _659
REMARK  247  A    between atoms: _664  and  _666
REMARK  248  A    between atoms: _666  and  _667
REMARK  249  A    between atoms: _666  and  _669
REMARK  250  A    between atoms: _669  and  _670
REMARK  251  A    between atoms: _673  and  _675
REMARK  252  A    between atoms: _675  and  _676
REMARK  253  A    between atoms: _675  and  _678
REMARK  254  A    between atoms: _678  and  _679
REMARK  255  A    between atoms: _679  and  _680
REMARK  256  A    between atoms: _683  and  _685
REMARK  257  A    between atoms: _685  and  _686
REMARK  258  A    between atoms: _685  and  _688
REMARK  259  A    between atoms: _688  and  _689
REMARK  260  A    between atoms: _689  and  _690
REMARK  261  A    between atoms: _690  and  _691
REMARK  262  A    between atoms: _691  and  _692
REMARK  263  A    between atoms: _696  and  _698
REMARK  264  A    between atoms: _698  and  _699
REMARK  265  A    between atoms: _698  and  _701
REMARK  266  A    between atoms: _701  and  _702
REMARK  267  A    between atoms: _707  and  _709
REMARK  268  A    between atoms: _709  and  _710
REMARK  269  A    between atoms: _709  and  _712
REMARK  270  A    between atoms: _712  and  _713
REMARK  271  A    between atoms: _713  and  _714
REMARK  272  A    between atoms: _714  and  _715
REMARK  273  A    between atoms: _724  and  _726
REMARK  274  A    between atoms: _726  and  _727
REMARK  275  A    between atoms: _726  and  _729
REMARK  276  A    between atoms: _729  and  _730
REMARK  277  A    between atoms: _733  and  _735
REMARK  278  A    between atoms: _735  and  _736
REMARK  279  A    between atoms: _735  and  _738
REMARK  280  A    between atoms: _741  and  _743
REMARK  281  A    between atoms: _743  and  _744
REMARK  282  A    between atoms: _743  and  _746
REMARK  283  A    between atoms: _746  and  _747
REMARK  284  A    between atoms: _747  and  _748
REMARK  285  A    between atoms: _754  and  _755
REMARK  286  A    between atoms: _760  and  _762
REMARK  287  A    between atoms: _762  and  _763
REMARK  288  A    between atoms: _762  and  _765
REMARK  289  A    between atoms: _765  and  _766
REMARK  290  A    between atoms: _769  and  _771
REMARK  291  A    between atoms: _771  and  _772
REMARK  292  A    between atoms: _771  and  _774
REMARK  293  A    between atoms: _774  and  _775
REMARK  294  A    between atoms: _775  and  _776
REMARK  295  A    between atoms: _776  and  _777
REMARK  296  A    between atoms: _786  and  _788
REMARK  297  A    between atoms: _788  and  _789
REMARK                            x       y       z     vdW  Elec       q    Type
REMARK                         _______ _______ _______ _____ _____    ______ ____
ROOT
ATOM      1  O   HOH     1      11.399  23.148 -35.365  0.00  0.00    +0.000 OA
ENDROOT
TORSDOF 0
REMARK  Name = ../refined-set-2016/3o4k/3o4k_pocket.pdb
REMARK  297 active torsions:
REMARK  status: ('A' for Active; 'I' for Inactive)
REMARK    1  A    between atoms: _1  and  _3
REMARK    2  A    between atoms: _3  and  _4
REMARK    3  A    between atoms: _3  and  _6
REMARK    4  A    between atoms: _6  and  _7
REMARK    5  A    between atoms: _7  and  _8
REMARK    6  A    between atoms: _8  and  _9
REMARK    7  A    between atoms: _18  and  _20
REMARK    8  A    between atoms: _20  and  _21
REMARK    9  A    between atoms: _20  and  _23
REMARK   10  A    between atoms: _23  and  _24
REMARK   11  A    between atoms: _29  and  _30
REMARK   12  A    between atoms: _32  and  _34
REMARK   13  A    between atoms: _34  and  _35
REMARK   14  A    between atoms: _34  and  _37
REMARK   15  A    between atoms: _37  and  _38
REMARK   16  A    between atoms: _48  and  _50
REMARK   17  A    between atoms: _50  and  _51
REMARK   18  A    between atoms: _50  and  _53
REMARK   19  A    between atoms: _53  and  _54
REMARK   20  A    between atoms: _54  and  _55
REMARK   21  A    between atoms: _55  and  _56
REMARK   22  A    between atoms: _65  and  _67
REMARK   23  A    between atoms: _67  and  _68
REMARK   24  A    between atoms: _67  and  _70
REMARK   25  A    between atoms: _70  and  _71
REMARK   26  A    between atoms: _73  and  _75
REMARK   27  A    between atoms: _75  and  _76
REMARK   28  A    between atoms: _75  and  _78
REMARK   29  A    between atoms: _78  and  _79
REMARK   30  A    between atoms: _84  and  _86
REMARK   31  A    between atoms: _86  and  _87
REMARK   32  A    between atoms: _86  and  _89
REMARK   33  A    between atoms: _89  and  _90
REMARK   34  A    between atoms: _95  and  _96
REMARK   35  A    between atoms: _98  and  _100
REMARK   36  A    between atoms: _100  and  _101
REMARK   37  A    between atoms: _100  and  _103
REMARK   38  A    between atoms: _103  and  _104
REMARK   39  A    between atoms: _104  and  _105
REMARK   40  A    between atoms: _108  and  _110
REMARK   41  A    between atoms: _110  and  _111
REMARK   42  A    between atoms: _110  and  _113
REMARK   43  A    between atoms: _116  and  _118
REMARK   44  A    between atoms: _118  and  _119
REMARK   45  A    between atoms: _118  and  _121
REMARK   46  A    between atoms: _121  and  _122
REMARK   47  A    between atoms: _122  and  _123
REMARK   48  A    between atoms: _123  and  _124
REMARK   49  A    between atoms: _124  and  _125
REMARK   50  A    between atoms: _129  and  _131
REMARK   51  A    between atoms: _131  and  _132
REMARK   52  A    between atoms: _131  and  _134
REMARK   53  A    between atoms: _134  and  _135
REMARK   54  A    between atoms: _140  and  _142
REMARK   55  A    between atoms: _142  and  _143
REMARK   56  A    between atoms: _142  and  _145
REMARK   57  A    between atoms: _145  and  _146
REMARK   58  A    between atoms: _151  and  _152
REMARK   59  A    between atoms: _154  and  _156
REMARK   60  A    between atoms: _156  and  _157
REMARK   61  A    between atoms: _156  and  _159
REMARK   62  A    between atoms: _159  and  _160
REMARK   63  A    between atoms: _160  and  _161
REMARK   64  A    between atoms: _161  and  _162
REMARK   65  A    between atoms: _171  and  _173
REMARK   66  A    between atoms: _173  and  _174
REMARK   67  A    between atoms: _178  and  _180
REMARK   68  A    between atoms: _180  and  _181
REMARK   69  A    between atoms: _180  and  _183
REMARK   70  A    between atoms: _183  and  _184
REMARK   71  A    between atoms: _186  and  _188
REMARK   72  A    between atoms: _188  and  _189
REMARK   73  A    between atoms: _188  and  _191
REMARK   74  A    between atoms: _191  and  _192
REMARK   75  A    between atoms: _192  and  _193
REMARK   76  A    between atoms: _196  and  _198
REMARK   77  A    between atoms: _198  and  _199
REMARK   78  A    between atoms: _198  and  _201
REMARK   79  A    between atoms: _201  and  _202
REMARK   80  A    between atoms: _202  and  _352
REMARK   81  A    between atoms: _203  and  _205
REMARK   82  A    between atoms: _205  and  _206
REMARK   83  A    between atoms: _205  and  _208
REMARK   84  A    between atoms: _208  and  _209
REMARK   85  A    between atoms: _209  and  _210
REMARK   86  A    between atoms: _210  and  _211
REMARK   87  A    between atoms: _220  and  _222
REMARK   88  A    between atoms: _222  and  _223
REMARK   89  A    between atoms: _222  and  _225
REMARK   90  A    between atoms: _225  and  _226
REMARK   91  A    between atoms: _226  and  _227
REMARK   92  A    between atoms: _230  and  _232
REMARK   93  A    between atoms: _232  and  _233
REMARK   94  A    between atoms: _232  and  _235
REMARK   95  A    between atoms: _235  and  _236
REMARK   96  A    between atoms: _236  and  _237
REMARK   97  A    between atoms: _237  and  _238
REMARK   98  A    between atoms: _247  and  _249
REMARK   99  A    between atoms: _249  and  _250
REMARK  100  A    between atoms: _249  and  _252
REMARK  101  A    between atoms: _252  and  _253
REMARK  102  A    between atoms: _255  and  _257
REMARK  103  A    between atoms: _257  and  _258
REMARK  104  A    between atoms: _257  and  _260
REMARK  105  A    between atoms: _260  and  _261
REMARK  106  A    between atoms: _266  and  _267
REMARK  107  A    between atoms: _269  and  _271
REMARK  108  A    between atoms: _271  and  _272
REMARK  109  A    between atoms: _271  and  _274
REMARK  110  A    between atoms: _274  and  _275
REMARK  111  A    between atoms: _280  and  _282
REMARK  112  A    between atoms: _282  and  _283
REMARK  113  A    between atoms: _282  and  _285
REMARK  114  A    between atoms: _288  and  _290
REMARK  115  A    between atoms: _290  and  _291
REMARK  116  A    between atoms: _290  and  _293
REMARK  117  A    between atoms: _293  and  _294
REMARK  118  A    between atoms: _294  and  _295
REMARK  119  A    between atoms: _295  and  _296
REMARK  120  A    between atoms: _305  and  _307
REMARK  121  A    between atoms: _307  and  _308
REMARK  122  A    between atoms: _307  and  _310
REMARK  123  A    between atoms: _310  and  _311
REMARK  124  A    between atoms: _316  and  _318
REMARK  125  A    between atoms: _318  and  _319
REMARK  126  A    between atoms: _318  and  _321
REMARK  127  A    between atoms: _321  and  _322
REMARK  128  A    between atoms: _325  and  _327
REMARK  129  A    between atoms: _327  and  _328
REMARK  130  A    between atoms: _330  and  _332
REMARK  131  A    between atoms: _332  and  _333
REMARK  132  A    between atoms: _332  and  _335
REMARK  133  A    between atoms: _335  and  _336
REMARK  134  A    between atoms: _346  and  _348
REMARK  135  A    between atoms: _348  and  _349
REMARK  136  A    between atoms: _348  and  _351
REMARK  137  A    between atoms: _351  and  _352
REMARK  138  A    between atoms: _353  and  _355
REMARK  139  A    between atoms: _355  and  _356
REMARK  140  A    between atoms: _355  and  _358
REMARK  141  A    between atoms: _358  and  _359
REMARK  142  A    between atoms: _362  and  _364
REMARK  143  A    between atoms: _364  and  _365
REMARK  144  A    between atoms: _367  and  _369
REMARK  145  A    between atoms: _369  and  _370
REMARK  146  A    between atoms: _369  and  _372
REMARK  147  A    between atoms: _372  and  _373
REMARK  148  A    between atoms: _378  and  _379
REMARK  149  A    between atoms: _381  and  _383
REMARK  150  A    between atoms: _383  and  _384
REMARK  151  A    between atoms: _383  and  _386
REMARK  152  A    between atoms: _386  and  _387
REMARK  153  A    between atoms: _387  and  _388
REMARK  154  A    between atoms: _388  and  _389
REMARK  155  A    between atoms: _398  and  _400
REMARK  156  A    between atoms: _400  and  _401
REMARK  157  A    between atoms: _400  and  _403
REMARK  158  A    between atoms: _403  and  _404
REMARK  159  A    between atoms: _407  and  _409
REMARK  160  A    between atoms: _409  and  _410
REMARK  161  A    between atoms: _409  and  _412
REMARK  162  A    between atoms: _412  and  _413
REMARK  163  A    between atoms: _413  and  _414
REMARK  164  A    between atoms: _414  and  _415
REMARK  165  A    between atoms: _415  and  _416
REMARK  166  A    between atoms: _420  and  _422
REMARK  167  A    between atoms: _422  and  _423
REMARK  168  A    between atoms: _425  and  _427
REMARK  169  A    between atoms: _427  and  _428
REMARK  170  A    between atoms: _431  and  _433
REMARK  171  A    between atoms: _433  and  _434
REMARK  172  A    between atoms: _433  and  _436
REMARK  173  A    between atoms: _436  and  _437
REMARK  174  A    between atoms: _442  and  _444
REMARK  175  A    between atoms: _444  and  _445
REMARK  176  A    between atoms: _448  and  _450
REMARK  177  A    between atoms: _450  and  _451
REMARK  178  A    between atoms: _454  and  _455
REMARK  179  A    between atoms: _460  and  _462
REMARK  180  A    between atoms: _462  and  _463
REMARK  181  A    between atoms: _462  and  _465
REMARK  182  A    between atoms: _465  and  _466
REMARK  183  A    between atoms: _469  and  _471
REMARK  184  A    between atoms: _471  and  _472
REMARK  185  A    between atoms: _471  and  _474
REMARK  186  A    between atoms: _474  and  _475
REMARK  187  A    between atoms: _485  and  _487
REMARK  188  A    between atoms: _487  and  _488
REMARK  189  A    between atoms: _487  and  _490
REMARK  190  A    between atoms: _490  and  _491
REMARK  191  A    between atoms: _497  and  _498
REMARK  192  A    between atoms: _503  and  _505
REMARK  193  A    between atoms: _505  and  _506
REMARK  194  A    between atoms: _505  and  _508
REMARK  195  A    between atoms: _508  and  _509
REMARK  196  A    between atoms: _514  and  _516
REMARK  197  A    between atoms: _516  and  _517
REMARK  198  A    between atoms: _516  and  _519
REMARK  199  A    between atoms: _522  and  _524
REMARK  200  A    between atoms: _524  and  _525
REMARK  201  A    between atoms: _524  and  _527
REMARK  202  A    between atoms: _527  and  _528
REMARK  203  A    between atoms: _528  and  _529
REMARK  204  A    between atoms: _535  and  _536
REMARK  205  A    between atoms: _541  and  _543
REMARK  206  A    between atoms: _543  and  _544
REMARK  207  A    between atoms: _543  and  _546
REMARK  208  A    between atoms: _546  and  _547
REMARK  209  A    between atoms: _550  and  _552
REMARK  210  A    between atoms: _552  and  _553
REMARK  211  A    between atoms: _552  and  _555
REMARK  212  A    between atoms: _555  and  _556
REMARK  213  A    between atoms: _558  and  _560
REMARK  214  A    between atoms: _560  and  _561
REMARK  215  A    between atoms: _560  and  _563
REMARK  216  A    between atoms: _563  and  _564
REMARK  217  A    between atoms: _569  and  _570
REMARK  218  A    between atoms: _572  and  _574
REMARK  219  A    between atoms: _574  and  _575
REMARK  220  A    between atoms: _574  and  _577
REMARK  221  A    between atoms: _577  and  _578
REMARK  222  A    between atoms: _588  and  _590
REMARK  223  A    between atoms: _590  and  _591
REMARK  224  A    between atoms: _593  and  _595
REMARK  225  A    between atoms: _595  and  _596
REMARK  226  A    between atoms: _599  and  _601
REMARK  227  A    between atoms: _601  and  _602
REMARK  228  A    between atoms: _601  and  _604
REMARK  229  A    between atoms: _604  and  _605
REMARK  230  A    between atoms: _610  and  _612
REMARK  231  A    between atoms: _612  and  _613
REMARK  232  A    between atoms: _616  and  _618
REMARK  233  A    between atoms: _618  and  _619
REMARK  234  A    between atoms: _622  and  _623
REMARK  235  A    between atoms: _628  and  _630
REMARK  236  A    between atoms: _630  and  _631
REMARK  237  A    between atoms: _630  and  _633
REMARK  238  A    between atoms: _633  and  _634
REMARK  239  A    between atoms: _637  and  _639
REMARK  240  A    between atoms: _639  and  _640
REMARK  241  A    between atoms: _639  and  _642
REMARK  242  A    between atoms: _642  and  _643
REMARK  243  A    between atoms: _653  and  _655
REMARK  244  A    between atoms: _655  and  _656
REMARK  245  A    between atoms: _655  and  _658
REMARK  246  A    between atoms: _658  and  _659
REMARK  247  A    between atoms: _664  and  _666
REMARK  248  A    between atoms: _666  and  _667
REMARK  249  A    between atoms: _666  and  _669
REMARK  250  A    between atoms: _669  and  _670
REMARK  251  A    between atoms: _673  and  _675
REMARK  252  A    between atoms: _675  and  _676
REMARK  253  A    between atoms: _675  and  _678
REMARK  254  A    between atoms: _678  and  _679
REMARK  255  A    between atoms: _679  and  _680
REMARK  256  A    between atoms: _683  and  _685
REMARK  257  A    between atoms: _685  and  _686
REMARK  258  A    between atoms: _685  and  _688
REMARK  259  A    between atoms: _688  and  _689
REMARK  260  A    between atoms: _689  and  _690
REMARK  261  A    between atoms: _690  and  _691
REMARK  262  A    between atoms: _691  and  _692
REMARK  263  A    between atoms: _696  and  _698
REMARK  264  A    between atoms: _698  and  _699
REMARK  265  A    between atoms: _698  and  _701
REMARK  266  A    between atoms: _701  and  _702
REMARK  267  A    between atoms: _707  and  _709
REMARK  268  A    between atoms: _709  and  _710
REMARK  269  A    between atoms: _709  and  _712
REMARK  270  A    between atoms: _712  and  _713
REMARK  271  A    between atoms: _713  and  _714
REMARK  272  A    between atoms: _714  and  _715
REMARK  273  A    between atoms: _724  and  _726
REMARK  274  A    between atoms: _726  and  _727
REMARK  275  A    between atoms: _726  and  _729
REMARK  276  A    between atoms: _729  and  _730
REMARK  277  A    between atoms: _733  and  _735
REMARK  278  A    between atoms: _735  and  _736
REMARK  279  A    between atoms: _735  and  _738
REMARK  280  A    between atoms: _741  and  _743
REMARK  281  A    between atoms: _743  and  _744
REMARK  282  A    between atoms: _743  and  _746
REMARK  283  A    between atoms: _746  and  _747
REMARK  284  A    between atoms: _747  and  _748
REMARK  285  A    between atoms: _754  and  _755
REMARK  286  A    between atoms: _760  and  _762
REMARK  287  A    between atoms: _762  and  _763
REMARK  288  A    between atoms: _762  and  _765
REMARK  289  A    between atoms: _765  and  _766
REMARK  290  A    between atoms: _769  and  _771
REMARK  291  A    between atoms: _771  and  _772
REMARK  292  A    between atoms: _771  and  _774
REMARK  293  A    between atoms: _774  and  _775
REMARK  294  A    between atoms: _775  and  _776
REMARK  295  A    between atoms: _776  and  _777
REMARK  296  A    between atoms: _786  and  _788
REMARK  297  A    between atoms: _788  and  _789
REMARK                            x       y       z     vdW  Elec       q    Type
REMARK                         _______ _______ _______ _____ _____    ______ ____
ROOT
ATOM      1  O   HOH     1       6.367  13.868 -27.612  0.00  0.00    +0.000 OA
ENDROOT
TORSDOF 0
REMARK  Name = ../refined-set-2016/3o4k/3o4k_pocket.pdb
REMARK  297 active torsions:
REMARK  status: ('A' for Active; 'I' for Inactive)
REMARK    1  A    between atoms: _1  and  _3
REMARK    2  A    between atoms: _3  and  _4
REMARK    3  A    between atoms: _3  and  _6
REMARK    4  A    between atoms: _6  and  _7
REMARK    5  A    between atoms: _7  and  _8
REMARK    6  A    between atoms: _8  and  _9
REMARK    7  A    between atoms: _18  and  _20
REMARK    8  A    between atoms: _20  and  _21
REMARK    9  A    between atoms: _20  and  _23
REMARK   10  A    between atoms: _23  and  _24
REMARK   11  A    between atoms: _29  and  _30
REMARK   12  A    between atoms: _32  and  _34
REMARK   13  A    between atoms: _34  and  _35
REMARK   14  A    between atoms: _34  and  _37
REMARK   15  A    between atoms: _37  and  _38
REMARK   16  A    between atoms: _48  and  _50
REMARK   17  A    between atoms: _50  and  _51
REMARK   18  A    between atoms: _50  and  _53
REMARK   19  A    between atoms: _53  and  _54
REMARK   20  A    between atoms: _54  and  _55
REMARK   21  A    between atoms: _55  and  _56
REMARK   22  A    between atoms: _65  and  _67
REMARK   23  A    between atoms: _67  and  _68
REMARK   24  A    between atoms: _67  and  _70
REMARK   25  A    between atoms: _70  and  _71
REMARK   26  A    between atoms: _73  and  _75
REMARK   27  A    between atoms: _75  and  _76
REMARK   28  A    between atoms: _75  and  _78
REMARK   29  A    between atoms: _78  and  _79
REMARK   30  A    between atoms: _84  and  _86
REMARK   31  A    between atoms: _86  and  _87
REMARK   32  A    between atoms: _86  and  _89
REMARK   33  A    between atoms: _89  and  _90
REMARK   34  A    between atoms: _95  and  _96
REMARK   35  A    between atoms: _98  and  _100
REMARK   36  A    between atoms: _100  and  _101
REMARK   37  A    between atoms: _100  and  _103
REMARK   38  A    between atoms: _103  and  _104
REMARK   39  A    between atoms: _104  and  _105
REMARK   40  A    between atoms: _108  and  _110
REMARK   41  A    between atoms: _110  and  _111
REMARK   42  A    between atoms: _110  and  _113
REMARK   43  A    between atoms: _116  and  _118
REMARK   44  A    between atoms: _118  and  _119
REMARK   45  A    between atoms: _118  and  _121
REMARK   46  A    between atoms: _121  and  _122
REMARK   47  A    between atoms: _122  and  _123
REMARK   48  A    between atoms: _123  and  _124
REMARK   49  A    between atoms: _124  and  _125
REMARK   50  A    between atoms: _129  and  _131
REMARK   51  A    between atoms: _131  and  _132
REMARK   52  A    between atoms: _131  and  _134
REMARK   53  A    between atoms: _134  and  _135
REMARK   54  A    between atoms: _140  and  _142
REMARK   55  A    between atoms: _142  and  _143
REMARK   56  A    between atoms: _142  and  _145
REMARK   57  A    between atoms: _145  and  _146
REMARK   58  A    between atoms: _151  and  _152
REMARK   59  A    between atoms: _154  and  _156
REMARK   60  A    between atoms: _156  and  _157
REMARK   61  A    between atoms: _156  and  _159
REMARK   62  A    between atoms: _159  and  _160
REMARK   63  A    between atoms: _160  and  _161
REMARK   64  A    between atoms: _161  and  _162
REMARK   65  A    between atoms: _171  and  _173
REMARK   66  A    between atoms: _173  and  _174
REMARK   67  A    between atoms: _178  and  _180
REMARK   68  A    between atoms: _180  and  _181
REMARK   69  A    between atoms: _180  and  _183
REMARK   70  A    between atoms: _183  and  _184
REMARK   71  A    between atoms: _186  and  _188
REMARK   72  A    between atoms: _188  and  _189
REMARK   73  A    between atoms: _188  and  _191
REMARK   74  A    between atoms: _191  and  _192
REMARK   75  A    between atoms: _192  and  _193
REMARK   76  A    between atoms: _196  and  _198
REMARK   77  A    between atoms: _198  and  _199
REMARK   78  A    between atoms: _198  and  _201
REMARK   79  A    between atoms: _201  and  _202
REMARK   80  A    between atoms: _202  and  _352
REMARK   81  A    between atoms: _203  and  _205
REMARK   82  A    between atoms: _205  and  _206
REMARK   83  A    between atoms: _205  and  _208
REMARK   84  A    between atoms: _208  and  _209
REMARK   85  A    between atoms: _209  and  _210
REMARK   86  A    between atoms: _210  and  _211
REMARK   87  A    between atoms: _220  and  _222
REMARK   88  A    between atoms: _222  and  _223
REMARK   89  A    between atoms: _222  and  _225
REMARK   90  A    between atoms: _225  and  _226
REMARK   91  A    between atoms: _226  and  _227
REMARK   92  A    between atoms: _230  and  _232
REMARK   93  A    between atoms: _232  and  _233
REMARK   94  A    between atoms: _232  and  _235
REMARK   95  A    between atoms: _235  and  _236
REMARK   96  A    between atoms: _236  and  _237
REMARK   97  A    between atoms: _237  and  _238
REMARK   98  A    between atoms: _247  and  _249
REMARK   99  A    between atoms: _249  and  _250
REMARK  100  A    between atoms: _249  and  _252
REMARK  101  A    between atoms: _252  and  _253
REMARK  102  A    between atoms: _255  and  _257
REMARK  103  A    between atoms: _257  and  _258
REMARK  104  A    between atoms: _257  and  _260
REMARK  105  A    between atoms: _260  and  _261
REMARK  106  A    between atoms: _266  and  _267
REMARK  107  A    between atoms: _269  and  _271
REMARK  108  A    between atoms: _271  and  _272
REMARK  109  A    between atoms: _271  and  _274
REMARK  110  A    between atoms: _274  and  _275
REMARK  111  A    between atoms: _280  and  _282
REMARK  112  A    between atoms: _282  and  _283
REMARK  113  A    between atoms: _282  and  _285
REMARK  114  A    between atoms: _288  and  _290
REMARK  115  A    between atoms: _290  and  _291
REMARK  116  A    between atoms: _290  and  _293
REMARK  117  A    between atoms: _293  and  _294
REMARK  118  A    between atoms: _294  and  _295
REMARK  119  A    between atoms: _295  and  _296
REMARK  120  A    between atoms: _305  and  _307
REMARK  121  A    between atoms: _307  and  _308
REMARK  122  A    between atoms: _307  and  _310
REMARK  123  A    between atoms: _310  and  _311
REMARK  124  A    between atoms: _316  and  _318
REMARK  125  A    between atoms: _318  and  _319
REMARK  126  A    between atoms: _318  and  _321
REMARK  127  A    between atoms: _321  and  _322
REMARK  128  A    between atoms: _325  and  _327
REMARK  129  A    between atoms: _327  and  _328
REMARK  130  A    between atoms: _330  and  _332
REMARK  131  A    between atoms: _332  and  _333
REMARK  132  A    between atoms: _332  and  _335
REMARK  133  A    between atoms: _335  and  _336
REMARK  134  A    between atoms: _346  and  _348
REMARK  135  A    between atoms: _348  and  _349
REMARK  136  A    between atoms: _348  and  _351
REMARK  137  A    between atoms: _351  and  _352
REMARK  138  A    between atoms: _353  and  _355
REMARK  139  A    between atoms: _355  and  _356
REMARK  140  A    between atoms: _355  and  _358
REMARK  141  A    between atoms: _358  and  _359
REMARK  142  A    between atoms: _362  and  _364
REMARK  143  A    between atoms: _364  and  _365
REMARK  144  A    between atoms: _367  and  _369
REMARK  145  A    between atoms: _369  and  _370
REMARK  146  A    between atoms: _369  and  _372
REMARK  147  A    between atoms: _372  and  _373
REMARK  148  A    between atoms: _378  and  _379
REMARK  149  A    between atoms: _381  and  _383
REMARK  150  A    between atoms: _383  and  _384
REMARK  151  A    between atoms: _383  and  _386
REMARK  152  A    between atoms: _386  and  _387
REMARK  153  A    between atoms: _387  and  _388
REMARK  154  A    between atoms: _388  and  _389
REMARK  155  A    between atoms: _398  and  _400
REMARK  156  A    between atoms: _400  and  _401
REMARK  157  A    between atoms: _400  and  _403
REMARK  158  A    between atoms: _403  and  _404
REMARK  159  A    between atoms: _407  and  _409
REMARK  160  A    between atoms: _409  and  _410
REMARK  161  A    between atoms: _409  and  _412
REMARK  162  A    between atoms: _412  and  _413
REMARK  163  A    between atoms: _413  and  _414
REMARK  164  A    between atoms: _414  and  _415
REMARK  165  A    between atoms: _415  and  _416
REMARK  166  A    between atoms: _420  and  _422
REMARK  167  A    between atoms: _422  and  _423
REMARK  168  A    between atoms: _425  and  _427
REMARK  169  A    between atoms: _427  and  _428
REMARK  170  A    between atoms: _431  and  _433
REMARK  171  A    between atoms: _433  and  _434
REMARK  172  A    between atoms: _433  and  _436
REMARK  173  A    between atoms: _436  and  _437
REMARK  174  A    between atoms: _442  and  _444
REMARK  175  A    between atoms: _444  and  _445
REMARK  176  A    between atoms: _448  and  _450
REMARK  177  A    between atoms: _450  and  _451
REMARK  178  A    between atoms: _454  and  _455
REMARK  179  A    between atoms: _460  and  _462
REMARK  180  A    between atoms: _462  and  _463
REMARK  181  A    between atoms: _462  and  _465
REMARK  182  A    between atoms: _465  and  _466
REMARK  183  A    between atoms: _469  and  _471
REMARK  184  A    between atoms: _471  and  _472
REMARK  185  A    between atoms: _471  and  _474
REMARK  186  A    between atoms: _474  and  _475
REMARK  187  A    between atoms: _485  and  _487
REMARK  188  A    between atoms: _487  and  _488
REMARK  189  A    between atoms: _487  and  _490
REMARK  190  A    between atoms: _490  and  _491
REMARK  191  A    between atoms: _497  and  _498
REMARK  192  A    between atoms: _503  and  _505
REMARK  193  A    between atoms: _505  and  _506
REMARK  194  A    between atoms: _505  and  _508
REMARK  195  A    between atoms: _508  and  _509
REMARK  196  A    between atoms: _514  and  _516
REMARK  197  A    between atoms: _516  and  _517
REMARK  198  A    between atoms: _516  and  _519
REMARK  199  A    between atoms: _522  and  _524
REMARK  200  A    between atoms: _524  and  _525
REMARK  201  A    between atoms: _524  and  _527
REMARK  202  A    between atoms: _527  and  _528
REMARK  203  A    between atoms: _528  and  _529
REMARK  204  A    between atoms: _535  and  _536
REMARK  205  A    between atoms: _541  and  _543
REMARK  206  A    between atoms: _543  and  _544
REMARK  207  A    between atoms: _543  and  _546
REMARK  208  A    between atoms: _546  and  _547
REMARK  209  A    between atoms: _550  and  _552
REMARK  210  A    between atoms: _552  and  _553
REMARK  211  A    between atoms: _552  and  _555
REMARK  212  A    between atoms: _555  and  _556
REMARK  213  A    between atoms: _558  and  _560
REMARK  214  A    between atoms: _560  and  _561
REMARK  215  A    between atoms: _560  and  _563
REMARK  216  A    between atoms: _563  and  _564
REMARK  217  A    between atoms: _569  and  _570
REMARK  218  A    between atoms: _572  and  _574
REMARK  219  A    between atoms: _574  and  _575
REMARK  220  A    between atoms: _574  and  _577
REMARK  221  A    between atoms: _577  and  _578
REMARK  222  A    between atoms: _588  and  _590
REMARK  223  A    between atoms: _590  and  _591
REMARK  224  A    between atoms: _593  and  _595
REMARK  225  A    between atoms: _595  and  _596
REMARK  226  A    between atoms: _599  and  _601
REMARK  227  A    between atoms: _601  and  _602
REMARK  228  A    between atoms: _601  and  _604
REMARK  229  A    between atoms: _604  and  _605
REMARK  230  A    between atoms: _610  and  _612
REMARK  231  A    between atoms: _612  and  _613
REMARK  232  A    between atoms: _616  and  _618
REMARK  233  A    between atoms: _618  and  _619
REMARK  234  A    between atoms: _622  and  _623
REMARK  235  A    between atoms: _628  and  _630
REMARK  236  A    between atoms: _630  and  _631
REMARK  237  A    between atoms: _630  and  _633
REMARK  238  A    between atoms: _633  and  _634
REMARK  239  A    between atoms: _637  and  _639
REMARK  240  A    between atoms: _639  and  _640
REMARK  241  A    between atoms: _639  and  _642
REMARK  242  A    between atoms: _642  and  _643
REMARK  243  A    between atoms: _653  and  _655
REMARK  244  A    between atoms: _655  and  _656
REMARK  245  A    between atoms: _655  and  _658
REMARK  246  A    between atoms: _658  and  _659
REMARK  247  A    between atoms: _664  and  _666
REMARK  248  A    between atoms: _666  and  _667
REMARK  249  A    between atoms: _666  and  _669
REMARK  250  A    between atoms: _669  and  _670
REMARK  251  A    between atoms: _673  and  _675
REMARK  252  A    between atoms: _675  and  _676
REMARK  253  A    between atoms: _675  and  _678
REMARK  254  A    between atoms: _678  and  _679
REMARK  255  A    between atoms: _679  and  _680
REMARK  256  A    between atoms: _683  and  _685
REMARK  257  A    between atoms: _685  and  _686
REMARK  258  A    between atoms: _685  and  _688
REMARK  259  A    between atoms: _688  and  _689
REMARK  260  A    between atoms: _689  and  _690
REMARK  261  A    between atoms: _690  and  _691
REMARK  262  A    between atoms: _691  and  _692
REMARK  263  A    between atoms: _696  and  _698
REMARK  264  A    between atoms: _698  and  _699
REMARK  265  A    between atoms: _698  and  _701
REMARK  266  A    between atoms: _701  and  _702
REMARK  267  A    between atoms: _707  and  _709
REMARK  268  A    between atoms: _709  and  _710
REMARK  269  A    between atoms: _709  and  _712
REMARK  270  A    between atoms: _712  and  _713
REMARK  271  A    between atoms: _713  and  _714
REMARK  272  A    between atoms: _714  and  _715
REMARK  273  A    between atoms: _724  and  _726
REMARK  274  A    between atoms: _726  and  _727
REMARK  275  A    between atoms: _726  and  _729
REMARK  276  A    between atoms: _729  and  _730
REMARK  277  A    between atoms: _733  and  _735
REMARK  278  A    between atoms: _735  and  _736
REMARK  279  A    between atoms: _735  and  _738
REMARK  280  A    between atoms: _741  and  _743
REMARK  281  A    between atoms: _743  and  _744
REMARK  282  A    between atoms: _743  and  _746
REMARK  283  A    between atoms: _746  and  _747
REMARK  284  A    between atoms: _747  and  _748
REMARK  285  A    between atoms: _754  and  _755
REMARK  286  A    between atoms: _760  and  _762
REMARK  287  A    between atoms: _762  and  _763
REMARK  288  A    between atoms: _762  and  _765
REMARK  289  A    between atoms: _765  and  _766
REMARK  290  A    between atoms: _769  and  _771
REMARK  291  A    between atoms: _771  and  _772
REMARK  292  A    between atoms: _771  and  _774
REMARK  293  A    between atoms: _774  and  _775
REMARK  294  A    between atoms: _775  and  _776
REMARK  295  A    between atoms: _776  and  _777
REMARK  296  A    between atoms: _786  and  _788
REMARK  297  A    between atoms: _788  and  _789
REMARK                            x       y       z     vdW  Elec       q    Type
REMARK                         _______ _______ _______ _____ _____    ______ ____
ROOT
ATOM      1  O   HOH     1      29.411  16.849 -25.679  0.00  0.00    +0.000 OA
ENDROOT
TORSDOF 0
REMARK  Name = ../refined-set-2016/3o4k/3o4k_pocket.pdb
REMARK  297 active torsions:
REMARK  status: ('A' for Active; 'I' for Inactive)
REMARK    1  A    between atoms: _1  and  _3
REMARK    2  A    between atoms: _3  and  _4
REMARK    3  A    between atoms: _3  and  _6
REMARK    4  A    between atoms: _6  and  _7
REMARK    5  A    between atoms: _7  and  _8
REMARK    6  A    between atoms: _8  and  _9
REMARK    7  A    between atoms: _18  and  _20
REMARK    8  A    between atoms: _20  and  _21
REMARK    9  A    between atoms: _20  and  _23
REMARK   10  A    between atoms: _23  and  _24
REMARK   11  A    between atoms: _29  and  _30
REMARK   12  A    between atoms: _32  and  _34
REMARK   13  A    between atoms: _34  and  _35
REMARK   14  A    between atoms: _34  and  _37
REMARK   15  A    between atoms: _37  and  _38
REMARK   16  A    between atoms: _48  and  _50
REMARK   17  A    between atoms: _50  and  _51
REMARK   18  A    between atoms: _50  and  _53
REMARK   19  A    between atoms: _53  and  _54
REMARK   20  A    between atoms: _54  and  _55
REMARK   21  A    between atoms: _55  and  _56
REMARK   22  A    between atoms: _65  and  _67
REMARK   23  A    between atoms: _67  and  _68
REMARK   24  A    between atoms: _67  and  _70
REMARK   25  A    between atoms: _70  and  _71
REMARK   26  A    between atoms: _73  and  _75
REMARK   27  A    between atoms: _75  and  _76
REMARK   28  A    between atoms: _75  and  _78
REMARK   29  A    between atoms: _78  and  _79
REMARK   30  A    between atoms: _84  and  _86
REMARK   31  A    between atoms: _86  and  _87
REMARK   32  A    between atoms: _86  and  _89
REMARK   33  A    between atoms: _89  and  _90
REMARK   34  A    between atoms: _95  and  _96
REMARK   35  A    between atoms: _98  and  _100
REMARK   36  A    between atoms: _100  and  _101
REMARK   37  A    between atoms: _100  and  _103
REMARK   38  A    between atoms: _103  and  _104
REMARK   39  A    between atoms: _104  and  _105
REMARK   40  A    between atoms: _108  and  _110
REMARK   41  A    between atoms: _110  and  _111
REMARK   42  A    between atoms: _110  and  _113
REMARK   43  A    between atoms: _116  and  _118
REMARK   44  A    between atoms: _118  and  _119
REMARK   45  A    between atoms: _118  and  _121
REMARK   46  A    between atoms: _121  and  _122
REMARK   47  A    between atoms: _122  and  _123
REMARK   48  A    between atoms: _123  and  _124
REMARK   49  A    between atoms: _124  and  _125
REMARK   50  A    between atoms: _129  and  _131
REMARK   51  A    between atoms: _131  and  _132
REMARK   52  A    between atoms: _131  and  _134
REMARK   53  A    between atoms: _134  and  _135
REMARK   54  A    between atoms: _140  and  _142
REMARK   55  A    between atoms: _142  and  _143
REMARK   56  A    between atoms: _142  and  _145
REMARK   57  A    between atoms: _145  and  _146
REMARK   58  A    between atoms: _151  and  _152
REMARK   59  A    between atoms: _154  and  _156
REMARK   60  A    between atoms: _156  and  _157
REMARK   61  A    between atoms: _156  and  _159
REMARK   62  A    between atoms: _159  and  _160
REMARK   63  A    between atoms: _160  and  _161
REMARK   64  A    between atoms: _161  and  _162
REMARK   65  A    between atoms: _171  and  _173
REMARK   66  A    between atoms: _173  and  _174
REMARK   67  A    between atoms: _178  and  _180
REMARK   68  A    between atoms: _180  and  _181
REMARK   69  A    between atoms: _180  and  _183
REMARK   70  A    between atoms: _183  and  _184
REMARK   71  A    between atoms: _186  and  _188
REMARK   72  A    between atoms: _188  and  _189
REMARK   73  A    between atoms: _188  and  _191
REMARK   74  A    between atoms: _191  and  _192
REMARK   75  A    between atoms: _192  and  _193
REMARK   76  A    between atoms: _196  and  _198
REMARK   77  A    between atoms: _198  and  _199
REMARK   78  A    between atoms: _198  and  _201
REMARK   79  A    between atoms: _201  and  _202
REMARK   80  A    between atoms: _202  and  _352
REMARK   81  A    between atoms: _203  and  _205
REMARK   82  A    between atoms: _205  and  _206
REMARK   83  A    between atoms: _205  and  _208
REMARK   84  A    between atoms: _208  and  _209
REMARK   85  A    between atoms: _209  and  _210
REMARK   86  A    between atoms: _210  and  _211
REMARK   87  A    between atoms: _220  and  _222
REMARK   88  A    between atoms: _222  and  _223
REMARK   89  A    between atoms: _222  and  _225
REMARK   90  A    between atoms: _225  and  _226
REMARK   91  A    between atoms: _226  and  _227
REMARK   92  A    between atoms: _230  and  _232
REMARK   93  A    between atoms: _232  and  _233
REMARK   94  A    between atoms: _232  and  _235
REMARK   95  A    between atoms: _235  and  _236
REMARK   96  A    between atoms: _236  and  _237
REMARK   97  A    between atoms: _237  and  _238
REMARK   98  A    between atoms: _247  and  _249
REMARK   99  A    between atoms: _249  and  _250
REMARK  100  A    between atoms: _249  and  _252
REMARK  101  A    between atoms: _252  and  _253
REMARK  102  A    between atoms: _255  and  _257
REMARK  103  A    between atoms: _257  and  _258
REMARK  104  A    between atoms: _257  and  _260
REMARK  105  A    between atoms: _260  and  _261
REMARK  106  A    between atoms: _266  and  _267
REMARK  107  A    between atoms: _269  and  _271
REMARK  108  A    between atoms: _271  and  _272
REMARK  109  A    between atoms: _271  and  _274
REMARK  110  A    between atoms: _274  and  _275
REMARK  111  A    between atoms: _280  and  _282
REMARK  112  A    between atoms: _282  and  _283
REMARK  113  A    between atoms: _282  and  _285
REMARK  114  A    between atoms: _288  and  _290
REMARK  115  A    between atoms: _290  and  _291
REMARK  116  A    between atoms: _290  and  _293
REMARK  117  A    between atoms: _293  and  _294
REMARK  118  A    between atoms: _294  and  _295
REMARK  119  A    between atoms: _295  and  _296
REMARK  120  A    between atoms: _305  and  _307
REMARK  121  A    between atoms: _307  and  _308
REMARK  122  A    between atoms: _307  and  _310
REMARK  123  A    between atoms: _310  and  _311
REMARK  124  A    between atoms: _316  and  _318
REMARK  125  A    between atoms: _318  and  _319
REMARK  126  A    between atoms: _318  and  _321
REMARK  127  A    between atoms: _321  and  _322
REMARK  128  A    between atoms: _325  and  _327
REMARK  129  A    between atoms: _327  and  _328
REMARK  130  A    between atoms: _330  and  _332
REMARK  131  A    between atoms: _332  and  _333
REMARK  132  A    between atoms: _332  and  _335
REMARK  133  A    between atoms: _335  and  _336
REMARK  134  A    between atoms: _346  and  _348
REMARK  135  A    between atoms: _348  and  _349
REMARK  136  A    between atoms: _348  and  _351
REMARK  137  A    between atoms: _351  and  _352
REMARK  138  A    between atoms: _353  and  _355
REMARK  139  A    between atoms: _355  and  _356
REMARK  140  A    between atoms: _355  and  _358
REMARK  141  A    between atoms: _358  and  _359
REMARK  142  A    between atoms: _362  and  _364
REMARK  143  A    between atoms: _364  and  _365
REMARK  144  A    between atoms: _367  and  _369
REMARK  145  A    between atoms: _369  and  _370
REMARK  146  A    between atoms: _369  and  _372
REMARK  147  A    between atoms: _372  and  _373
REMARK  148  A    between atoms: _378  and  _379
REMARK  149  A    between atoms: _381  and  _383
REMARK  150  A    between atoms: _383  and  _384
REMARK  151  A    between atoms: _383  and  _386
REMARK  152  A    between atoms: _386  and  _387
REMARK  153  A    between atoms: _387  and  _388
REMARK  154  A    between atoms: _388  and  _389
REMARK  155  A    between atoms: _398  and  _400
REMARK  156  A    between atoms: _400  and  _401
REMARK  157  A    between atoms: _400  and  _403
REMARK  158  A    between atoms: _403  and  _404
REMARK  159  A    between atoms: _407  and  _409
REMARK  160  A    between atoms: _409  and  _410
REMARK  161  A    between atoms: _409  and  _412
REMARK  162  A    between atoms: _412  and  _413
REMARK  163  A    between atoms: _413  and  _414
REMARK  164  A    between atoms: _414  and  _415
REMARK  165  A    between atoms: _415  and  _416
REMARK  166  A    between atoms: _420  and  _422
REMARK  167  A    between atoms: _422  and  _423
REMARK  168  A    between atoms: _425  and  _427
REMARK  169  A    between atoms: _427  and  _428
REMARK  170  A    between atoms: _431  and  _433
REMARK  171  A    between atoms: _433  and  _434
REMARK  172  A    between atoms: _433  and  _436
REMARK  173  A    between atoms: _436  and  _437
REMARK  174  A    between atoms: _442  and  _444
REMARK  175  A    between atoms: _444  and  _445
REMARK  176  A    between atoms: _448  and  _450
REMARK  177  A    between atoms: _450  and  _451
REMARK  178  A    between atoms: _454  and  _455
REMARK  179  A    between atoms: _460  and  _462
REMARK  180  A    between atoms: _462  and  _463
REMARK  181  A    between atoms: _462  and  _465
REMARK  182  A    between atoms: _465  and  _466
REMARK  183  A    between atoms: _469  and  _471
REMARK  184  A    between atoms: _471  and  _472
REMARK  185  A    between atoms: _471  and  _474
REMARK  186  A    between atoms: _474  and  _475
REMARK  187  A    between atoms: _485  and  _487
REMARK  188  A    between atoms: _487  and  _488
REMARK  189  A    between atoms: _487  and  _490
REMARK  190  A    between atoms: _490  and  _491
REMARK  191  A    between atoms: _497  and  _498
REMARK  192  A    between atoms: _503  and  _505
REMARK  193  A    between atoms: _505  and  _506
REMARK  194  A    between atoms: _505  and  _508
REMARK  195  A    between atoms: _508  and  _509
REMARK  196  A    between atoms: _514  and  _516
REMARK  197  A    between atoms: _516  and  _517
REMARK  198  A    between atoms: _516  and  _519
REMARK  199  A    between atoms: _522  and  _524
REMARK  200  A    between atoms: _524  and  _525
REMARK  201  A    between atoms: _524  and  _527
REMARK  202  A    between atoms: _527  and  _528
REMARK  203  A    between atoms: _528  and  _529
REMARK  204  A    between atoms: _535  and  _536
REMARK  205  A    between atoms: _541  and  _543
REMARK  206  A    between atoms: _543  and  _544
REMARK  207  A    between atoms: _543  and  _546
REMARK  208  A    between atoms: _546  and  _547
REMARK  209  A    between atoms: _550  and  _552
REMARK  210  A    between atoms: _552  and  _553
REMARK  211  A    between atoms: _552  and  _555
REMARK  212  A    between atoms: _555  and  _556
REMARK  213  A    between atoms: _558  and  _560
REMARK  214  A    between atoms: _560  and  _561
REMARK  215  A    between atoms: _560  and  _563
REMARK  216  A    between atoms: _563  and  _564
REMARK  217  A    between atoms: _569  and  _570
REMARK  218  A    between atoms: _572  and  _574
REMARK  219  A    between atoms: _574  and  _575
REMARK  220  A    between atoms: _574  and  _577
REMARK  221  A    between atoms: _577  and  _578
REMARK  222  A    between atoms: _588  and  _590
REMARK  223  A    between atoms: _590  and  _591
REMARK  224  A    between atoms: _593  and  _595
REMARK  225  A    between atoms: _595  and  _596
REMARK  226  A    between atoms: _599  and  _601
REMARK  227  A    between atoms: _601  and  _602
REMARK  228  A    between atoms: _601  and  _604
REMARK  229  A    between atoms: _604  and  _605
REMARK  230  A    between atoms: _610  and  _612
REMARK  231  A    between atoms: _612  and  _613
REMARK  232  A    between atoms: _616  and  _618
REMARK  233  A    between atoms: _618  and  _619
REMARK  234  A    between atoms: _622  and  _623
REMARK  235  A    between atoms: _628  and  _630
REMARK  236  A    between atoms: _630  and  _631
REMARK  237  A    between atoms: _630  and  _633
REMARK  238  A    between atoms: _633  and  _634
REMARK  239  A    between atoms: _637  and  _639
REMARK  240  A    between atoms: _639  and  _640
REMARK  241  A    between atoms: _639  and  _642
REMARK  242  A    between atoms: _642  and  _643
REMARK  243  A    between atoms: _653  and  _655
REMARK  244  A    between atoms: _655  and  _656
REMARK  245  A    between atoms: _655  and  _658
REMARK  246  A    between atoms: _658  and  _659
REMARK  247  A    between atoms: _664  and  _666
REMARK  248  A    between atoms: _666  and  _667
REMARK  249  A    between atoms: _666  and  _669
REMARK  250  A    between atoms: _669  and  _670
REMARK  251  A    between atoms: _673  and  _675
REMARK  252  A    between atoms: _675  and  _676
REMARK  253  A    between atoms: _675  and  _678
REMARK  254  A    between atoms: _678  and  _679
REMARK  255  A    between atoms: _679  and  _680
REMARK  256  A    between atoms: _683  and  _685
REMARK  257  A    between atoms: _685  and  _686
REMARK  258  A    between atoms: _685  and  _688
REMARK  259  A    between atoms: _688  and  _689
REMARK  260  A    between atoms: _689  and  _690
REMARK  261  A    between atoms: _690  and  _691
REMARK  262  A    between atoms: _691  and  _692
REMARK  263  A    between atoms: _696  and  _698
REMARK  264  A    between atoms: _698  and  _699
REMARK  265  A    between atoms: _698  and  _701
REMARK  266  A    between atoms: _701  and  _702
REMARK  267  A    between atoms: _707  and  _709
REMARK  268  A    between atoms: _709  and  _710
REMARK  269  A    between atoms: _709  and  _712
REMARK  270  A    between atoms: _712  and  _713
REMARK  271  A    between atoms: _713  and  _714
REMARK  272  A    between atoms: _714  and  _715
REMARK  273  A    between atoms: _724  and  _726
REMARK  274  A    between atoms: _726  and  _727
REMARK  275  A    between atoms: _726  and  _729
REMARK  276  A    between atoms: _729  and  _730
REMARK  277  A    between atoms: _733  and  _735
REMARK  278  A    between atoms: _735  and  _736
REMARK  279  A    between atoms: _735  and  _738
REMARK  280  A    between atoms: _741  and  _743
REMARK  281  A    between atoms: _743  and  _744
REMARK  282  A    between atoms: _743  and  _746
REMARK  283  A    between atoms: _746  and  _747
REMARK  284  A    between atoms: _747  and  _748
REMARK  285  A    between atoms: _754  and  _755
REMARK  286  A    between atoms: _760  and  _762
REMARK  287  A    between atoms: _762  and  _763
REMARK  288  A    between atoms: _762  and  _765
REMARK  289  A    between atoms: _765  and  _766
REMARK  290  A    between atoms: _769  and  _771
REMARK  291  A    between atoms: _771  and  _772
REMARK  292  A    between atoms: _771  and  _774
REMARK  293  A    between atoms: _774  and  _775
REMARK  294  A    between atoms: _775  and  _776
REMARK  295  A    between atoms: _776  and  _777
REMARK  296  A    between atoms: _786  and  _788
REMARK  297  A    between atoms: _788  and  _789
REMARK                            x       y       z     vdW  Elec       q    Type
REMARK                         _______ _______ _______ _____ _____    ______ ____
ROOT
ATOM      1  O   HOH     1      15.006  22.570 -30.473  0.00  0.00    +0.000 OA
ENDROOT
TORSDOF 0
REMARK  Name = ../refined-set-2016/3o4k/3o4k_pocket.pdb
REMARK  297 active torsions:
REMARK  status: ('A' for Active; 'I' for Inactive)
REMARK    1  A    between atoms: _1  and  _3
REMARK    2  A    between atoms: _3  and  _4
REMARK    3  A    between atoms: _3  and  _6
REMARK    4  A    between atoms: _6  and  _7
REMARK    5  A    between atoms: _7  and  _8
REMARK    6  A    between atoms: _8  and  _9
REMARK    7  A    between atoms: _18  and  _20
REMARK    8  A    between atoms: _20  and  _21
REMARK    9  A    between atoms: _20  and  _23
REMARK   10  A    between atoms: _23  and  _24
REMARK   11  A    between atoms: _29  and  _30
REMARK   12  A    between atoms: _32  and  _34
REMARK   13  A    between atoms: _34  and  _35
REMARK   14  A    between atoms: _34  and  _37
REMARK   15  A    between atoms: _37  and  _38
REMARK   16  A    between atoms: _48  and  _50
REMARK   17  A    between atoms: _50  and  _51
REMARK   18  A    between atoms: _50  and  _53
REMARK   19  A    between atoms: _53  and  _54
REMARK   20  A    between atoms: _54  and  _55
REMARK   21  A    between atoms: _55  and  _56
REMARK   22  A    between atoms: _65  and  _67
REMARK   23  A    between atoms: _67  and  _68
REMARK   24  A    between atoms: _67  and  _70
REMARK   25  A    between atoms: _70  and  _71
REMARK   26  A    between atoms: _73  and  _75
REMARK   27  A    between atoms: _75  and  _76
REMARK   28  A    between atoms: _75  and  _78
REMARK   29  A    between atoms: _78  and  _79
REMARK   30  A    between atoms: _84  and  _86
REMARK   31  A    between atoms: _86  and  _87
REMARK   32  A    between atoms: _86  and  _89
REMARK   33  A    between atoms: _89  and  _90
REMARK   34  A    between atoms: _95  and  _96
REMARK   35  A    between atoms: _98  and  _100
REMARK   36  A    between atoms: _100  and  _101
REMARK   37  A    between atoms: _100  and  _103
REMARK   38  A    between atoms: _103  and  _104
REMARK   39  A    between atoms: _104  and  _105
REMARK   40  A    between atoms: _108  and  _110
REMARK   41  A    between atoms: _110  and  _111
REMARK   42  A    between atoms: _110  and  _113
REMARK   43  A    between atoms: _116  and  _118
REMARK   44  A    between atoms: _118  and  _119
REMARK   45  A    between atoms: _118  and  _121
REMARK   46  A    between atoms: _121  and  _122
REMARK   47  A    between atoms: _122  and  _123
REMARK   48  A    between atoms: _123  and  _124
REMARK   49  A    between atoms: _124  and  _125
REMARK   50  A    between atoms: _129  and  _131
REMARK   51  A    between atoms: _131  and  _132
REMARK   52  A    between atoms: _131  and  _134
REMARK   53  A    between atoms: _134  and  _135
REMARK   54  A    between atoms: _140  and  _142
REMARK   55  A    between atoms: _142  and  _143
REMARK   56  A    between atoms: _142  and  _145
REMARK   57  A    between atoms: _145  and  _146
REMARK   58  A    between atoms: _151  and  _152
REMARK   59  A    between atoms: _154  and  _156
REMARK   60  A    between atoms: _156  and  _157
REMARK   61  A    between atoms: _156  and  _159
REMARK   62  A    between atoms: _159  and  _160
REMARK   63  A    between atoms: _160  and  _161
REMARK   64  A    between atoms: _161  and  _162
REMARK   65  A    between atoms: _171  and  _173
REMARK   66  A    between atoms: _173  and  _174
REMARK   67  A    between atoms: _178  and  _180
REMARK   68  A    between atoms: _180  and  _181
REMARK   69  A    between atoms: _180  and  _183
REMARK   70  A    between atoms: _183  and  _184
REMARK   71  A    between atoms: _186  and  _188
REMARK   72  A    between atoms: _188  and  _189
REMARK   73  A    between atoms: _188  and  _191
REMARK   74  A    between atoms: _191  and  _192
REMARK   75  A    between atoms: _192  and  _193
REMARK   76  A    between atoms: _196  and  _198
REMARK   77  A    between atoms: _198  and  _199
REMARK   78  A    between atoms: _198  and  _201
REMARK   79  A    between atoms: _201  and  _202
REMARK   80  A    between atoms: _202  and  _352
REMARK   81  A    between atoms: _203  and  _205
REMARK   82  A    between atoms: _205  and  _206
REMARK   83  A    between atoms: _205  and  _208
REMARK   84  A    between atoms: _208  and  _209
REMARK   85  A    between atoms: _209  and  _210
REMARK   86  A    between atoms: _210  and  _211
REMARK   87  A    between atoms: _220  and  _222
REMARK   88  A    between atoms: _222  and  _223
REMARK   89  A    between atoms: _222  and  _225
REMARK   90  A    between atoms: _225  and  _226
REMARK   91  A    between atoms: _226  and  _227
REMARK   92  A    between atoms: _230  and  _232
REMARK   93  A    between atoms: _232  and  _233
REMARK   94  A    between atoms: _232  and  _235
REMARK   95  A    between atoms: _235  and  _236
REMARK   96  A    between atoms: _236  and  _237
REMARK   97  A    between atoms: _237  and  _238
REMARK   98  A    between atoms: _247  and  _249
REMARK   99  A    between atoms: _249  and  _250
REMARK  100  A    between atoms: _249  and  _252
REMARK  101  A    between atoms: _252  and  _253
REMARK  102  A    between atoms: _255  and  _257
REMARK  103  A    between atoms: _257  and  _258
REMARK  104  A    between atoms: _257  and  _260
REMARK  105  A    between atoms: _260  and  _261
REMARK  106  A    between atoms: _266  and  _267
REMARK  107  A    between atoms: _269  and  _271
REMARK  108  A    between atoms: _271  and  _272
REMARK  109  A    between atoms: _271  and  _274
REMARK  110  A    between atoms: _274  and  _275
REMARK  111  A    between atoms: _280  and  _282
REMARK  112  A    between atoms: _282  and  _283
REMARK  113  A    between atoms: _282  and  _285
REMARK  114  A    between atoms: _288  and  _290
REMARK  115  A    between atoms: _290  and  _291
REMARK  116  A    between atoms: _290  and  _293
REMARK  117  A    between atoms: _293  and  _294
REMARK  118  A    between atoms: _294  and  _295
REMARK  119  A    between atoms: _295  and  _296
REMARK  120  A    between atoms: _305  and  _307
REMARK  121  A    between atoms: _307  and  _308
REMARK  122  A    between atoms: _307  and  _310
REMARK  123  A    between atoms: _310  and  _311
REMARK  124  A    between atoms: _316  and  _318
REMARK  125  A    between atoms: _318  and  _319
REMARK  126  A    between atoms: _318  and  _321
REMARK  127  A    between atoms: _321  and  _322
REMARK  128  A    between atoms: _325  and  _327
REMARK  129  A    between atoms: _327  and  _328
REMARK  130  A    between atoms: _330  and  _332
REMARK  131  A    between atoms: _332  and  _333
REMARK  132  A    between atoms: _332  and  _335
REMARK  133  A    between atoms: _335  and  _336
REMARK  134  A    between atoms: _346  and  _348
REMARK  135  A    between atoms: _348  and  _349
REMARK  136  A    between atoms: _348  and  _351
REMARK  137  A    between atoms: _351  and  _352
REMARK  138  A    between atoms: _353  and  _355
REMARK  139  A    between atoms: _355  and  _356
REMARK  140  A    between atoms: _355  and  _358
REMARK  141  A    between atoms: _358  and  _359
REMARK  142  A    between atoms: _362  and  _364
REMARK  143  A    between atoms: _364  and  _365
REMARK  144  A    between atoms: _367  and  _369
REMARK  145  A    between atoms: _369  and  _370
REMARK  146  A    between atoms: _369  and  _372
REMARK  147  A    between atoms: _372  and  _373
REMARK  148  A    between atoms: _378  and  _379
REMARK  149  A    between atoms: _381  and  _383
REMARK  150  A    between atoms: _383  and  _384
REMARK  151  A    between atoms: _383  and  _386
REMARK  152  A    between atoms: _386  and  _387
REMARK  153  A    between atoms: _387  and  _388
REMARK  154  A    between atoms: _388  and  _389
REMARK  155  A    between atoms: _398  and  _400
REMARK  156  A    between atoms: _400  and  _401
REMARK  157  A    between atoms: _400  and  _403
REMARK  158  A    between atoms: _403  and  _404
REMARK  159  A    between atoms: _407  and  _409
REMARK  160  A    between atoms: _409  and  _410
REMARK  161  A    between atoms: _409  and  _412
REMARK  162  A    between atoms: _412  and  _413
REMARK  163  A    between atoms: _413  and  _414
REMARK  164  A    between atoms: _414  and  _415
REMARK  165  A    between atoms: _415  and  _416
REMARK  166  A    between atoms: _420  and  _422
REMARK  167  A    between atoms: _422  and  _423
REMARK  168  A    between atoms: _425  and  _427
REMARK  169  A    between atoms: _427  and  _428
REMARK  170  A    between atoms: _431  and  _433
REMARK  171  A    between atoms: _433  and  _434
REMARK  172  A    between atoms: _433  and  _436
REMARK  173  A    between atoms: _436  and  _437
REMARK  174  A    between atoms: _442  and  _444
REMARK  175  A    between atoms: _444  and  _445
REMARK  176  A    between atoms: _448  and  _450
REMARK  177  A    between atoms: _450  and  _451
REMARK  178  A    between atoms: _454  and  _455
REMARK  179  A    between atoms: _460  and  _462
REMARK  180  A    between atoms: _462  and  _463
REMARK  181  A    between atoms: _462  and  _465
REMARK  182  A    between atoms: _465  and  _466
REMARK  183  A    between atoms: _469  and  _471
REMARK  184  A    between atoms: _471  and  _472
REMARK  185  A    between atoms: _471  and  _474
REMARK  186  A    between atoms: _474  and  _475
REMARK  187  A    between atoms: _485  and  _487
REMARK  188  A    between atoms: _487  and  _488
REMARK  189  A    between atoms: _487  and  _490
REMARK  190  A    between atoms: _490  and  _491
REMARK  191  A    between atoms: _497  and  _498
REMARK  192  A    between atoms: _503  and  _505
REMARK  193  A    between atoms: _505  and  _506
REMARK  194  A    between atoms: _505  and  _508
REMARK  195  A    between atoms: _508  and  _509
REMARK  196  A    between atoms: _514  and  _516
REMARK  197  A    between atoms: _516  and  _517
REMARK  198  A    between atoms: _516  and  _519
REMARK  199  A    between atoms: _522  and  _524
REMARK  200  A    between atoms: _524  and  _525
REMARK  201  A    between atoms: _524  and  _527
REMARK  202  A    between atoms: _527  and  _528
REMARK  203  A    between atoms: _528  and  _529
REMARK  204  A    between atoms: _535  and  _536
REMARK  205  A    between atoms: _541  and  _543
REMARK  206  A    between atoms: _543  and  _544
REMARK  207  A    between atoms: _543  and  _546
REMARK  208  A    between atoms: _546  and  _547
REMARK  209  A    between atoms: _550  and  _552
REMARK  210  A    between atoms: _552  and  _553
REMARK  211  A    between atoms: _552  and  _555
REMARK  212  A    between atoms: _555  and  _556
REMARK  213  A    between atoms: _558  and  _560
REMARK  214  A    between atoms: _560  and  _561
REMARK  215  A    between atoms: _560  and  _563
REMARK  216  A    between atoms: _563  and  _564
REMARK  217  A    between atoms: _569  and  _570
REMARK  218  A    between atoms: _572  and  _574
REMARK  219  A    between atoms: _574  and  _575
REMARK  220  A    between atoms: _574  and  _577
REMARK  221  A    between atoms: _577  and  _578
REMARK  222  A    between atoms: _588  and  _590
REMARK  223  A    between atoms: _590  and  _591
REMARK  224  A    between atoms: _593  and  _595
REMARK  225  A    between atoms: _595  and  _596
REMARK  226  A    between atoms: _599  and  _601
REMARK  227  A    between atoms: _601  and  _602
REMARK  228  A    between atoms: _601  and  _604
REMARK  229  A    between atoms: _604  and  _605
REMARK  230  A    between atoms: _610  and  _612
REMARK  231  A    between atoms: _612  and  _613
REMARK  232  A    between atoms: _616  and  _618
REMARK  233  A    between atoms: _618  and  _619
REMARK  234  A    between atoms: _622  and  _623
REMARK  235  A    between atoms: _628  and  _630
REMARK  236  A    between atoms: _630  and  _631
REMARK  237  A    between atoms: _630  and  _633
REMARK  238  A    between atoms: _633  and  _634
REMARK  239  A    between atoms: _637  and  _639
REMARK  240  A    between atoms: _639  and  _640
REMARK  241  A    between atoms: _639  and  _642
REMARK  242  A    between atoms: _642  and  _643
REMARK  243  A    between atoms: _653  and  _655
REMARK  244  A    between atoms: _655  and  _656
REMARK  245  A    between atoms: _655  and  _658
REMARK  246  A    between atoms: _658  and  _659
REMARK  247  A    between atoms: _664  and  _666
REMARK  248  A    between atoms: _666  and  _667
REMARK  249  A    between atoms: _666  and  _669
REMARK  250  A    between atoms: _669  and  _670
REMARK  251  A    between atoms: _673  and  _675
REMARK  252  A    between atoms: _675  and  _676
REMARK  253  A    between atoms: _675  and  _678
REMARK  254  A    between atoms: _678  and  _679
REMARK  255  A    between atoms: _679  and  _680
REMARK  256  A    between atoms: _683  and  _685
REMARK  257  A    between atoms: _685  and  _686
REMARK  258  A    between atoms: _685  and  _688
REMARK  259  A    between atoms: _688  and  _689
REMARK  260  A    between atoms: _689  and  _690
REMARK  261  A    between atoms: _690  and  _691
REMARK  262  A    between atoms: _691  and  _692
REMARK  263  A    between atoms: _696  and  _698
REMARK  264  A    between atoms: _698  and  _699
REMARK  265  A    between atoms: _698  and  _701
REMARK  266  A    between atoms: _701  and  _702
REMARK  267  A    between atoms: _707  and  _709
REMARK  268  A    between atoms: _709  and  _710
REMARK  269  A    between atoms: _709  and  _712
REMARK  270  A    between atoms: _712  and  _713
REMARK  271  A    between atoms: _713  and  _714
REMARK  272  A    between atoms: _714  and  _715
REMARK  273  A    between atoms: _724  and  _726
REMARK  274  A    between atoms: _726  and  _727
REMARK  275  A    between atoms: _726  and  _729
REMARK  276  A    between atoms: _729  and  _730
REMARK  277  A    between atoms: _733  and  _735
REMARK  278  A    between atoms: _735  and  _736
REMARK  279  A    between atoms: _735  and  _738
REMARK  280  A    between atoms: _741  and  _743
REMARK  281  A    between atoms: _743  and  _744
REMARK  282  A    between atoms: _743  and  _746
REMARK  283  A    between atoms: _746  and  _747
REMARK  284  A    between atoms: _747  and  _748
REMARK  285  A    between atoms: _754  and  _755
REMARK  286  A    between atoms: _760  and  _762
REMARK  287  A    between atoms: _762  and  _763
REMARK  288  A    between atoms: _762  and  _765
REMARK  289  A    between atoms: _765  and  _766
REMARK  290  A    between atoms: _769  and  _771
REMARK  291  A    between atoms: _771  and  _772
REMARK  292  A    between atoms: _771  and  _774
REMARK  293  A    between atoms: _774  and  _775
REMARK  294  A    between atoms: _775  and  _776
REMARK  295  A    between atoms: _776  and  _777
REMARK  296  A    between atoms: _786  and  _788
REMARK  297  A    between atoms: _788  and  _789
REMARK                            x       y       z     vdW  Elec       q    Type
REMARK                         _______ _______ _______ _____ _____    ______ ____
ROOT
ATOM      1  O   HOH     1       9.859  21.865 -29.891  0.00  0.00    +0.000 OA
ENDROOT
TORSDOF 0
REMARK  Name = ../refined-set-2016/3o4k/3o4k_pocket.pdb
REMARK  297 active torsions:
REMARK  status: ('A' for Active; 'I' for Inactive)
REMARK    1  A    between atoms: _1  and  _3
REMARK    2  A    between atoms: _3  and  _4
REMARK    3  A    between atoms: _3  and  _6
REMARK    4  A    between atoms: _6  and  _7
REMARK    5  A    between atoms: _7  and  _8
REMARK    6  A    between atoms: _8  and  _9
REMARK    7  A    between atoms: _18  and  _20
REMARK    8  A    between atoms: _20  and  _21
REMARK    9  A    between atoms: _20  and  _23
REMARK   10  A    between atoms: _23  and  _24
REMARK   11  A    between atoms: _29  and  _30
REMARK   12  A    between atoms: _32  and  _34
REMARK   13  A    between atoms: _34  and  _35
REMARK   14  A    between atoms: _34  and  _37
REMARK   15  A    between atoms: _37  and  _38
REMARK   16  A    between atoms: _48  and  _50
REMARK   17  A    between atoms: _50  and  _51
REMARK   18  A    between atoms: _50  and  _53
REMARK   19  A    between atoms: _53  and  _54
REMARK   20  A    between atoms: _54  and  _55
REMARK   21  A    between atoms: _55  and  _56
REMARK   22  A    between atoms: _65  and  _67
REMARK   23  A    between atoms: _67  and  _68
REMARK   24  A    between atoms: _67  and  _70
REMARK   25  A    between atoms: _70  and  _71
REMARK   26  A    between atoms: _73  and  _75
REMARK   27  A    between atoms: _75  and  _76
REMARK   28  A    between atoms: _75  and  _78
REMARK   29  A    between atoms: _78  and  _79
REMARK   30  A    between atoms: _84  and  _86
REMARK   31  A    between atoms: _86  and  _87
REMARK   32  A    between atoms: _86  and  _89
REMARK   33  A    between atoms: _89  and  _90
REMARK   34  A    between atoms: _95  and  _96
REMARK   35  A    between atoms: _98  and  _100
REMARK   36  A    between atoms: _100  and  _101
REMARK   37  A    between atoms: _100  and  _103
REMARK   38  A    between atoms: _103  and  _104
REMARK   39  A    between atoms: _104  and  _105
REMARK   40  A    between atoms: _108  and  _110
REMARK   41  A    between atoms: _110  and  _111
REMARK   42  A    between atoms: _110  and  _113
REMARK   43  A    between atoms: _116  and  _118
REMARK   44  A    between atoms: _118  and  _119
REMARK   45  A    between atoms: _118  and  _121
REMARK   46  A    between atoms: _121  and  _122
REMARK   47  A    between atoms: _122  and  _123
REMARK   48  A    between atoms: _123  and  _124
REMARK   49  A    between atoms: _124  and  _125
REMARK   50  A    between atoms: _129  and  _131
REMARK   51  A    between atoms: _131  and  _132
REMARK   52  A    between atoms: _131  and  _134
REMARK   53  A    between atoms: _134  and  _135
REMARK   54  A    between atoms: _140  and  _142
REMARK   55  A    between atoms: _142  and  _143
REMARK   56  A    between atoms: _142  and  _145
REMARK   57  A    between atoms: _145  and  _146
REMARK   58  A    between atoms: _151  and  _152
REMARK   59  A    between atoms: _154  and  _156
REMARK   60  A    between atoms: _156  and  _157
REMARK   61  A    between atoms: _156  and  _159
REMARK   62  A    between atoms: _159  and  _160
REMARK   63  A    between atoms: _160  and  _161
REMARK   64  A    between atoms: _161  and  _162
REMARK   65  A    between atoms: _171  and  _173
REMARK   66  A    between atoms: _173  and  _174
REMARK   67  A    between atoms: _178  and  _180
REMARK   68  A    between atoms: _180  and  _181
REMARK   69  A    between atoms: _180  and  _183
REMARK   70  A    between atoms: _183  and  _184
REMARK   71  A    between atoms: _186  and  _188
REMARK   72  A    between atoms: _188  and  _189
REMARK   73  A    between atoms: _188  and  _191
REMARK   74  A    between atoms: _191  and  _192
REMARK   75  A    between atoms: _192  and  _193
REMARK   76  A    between atoms: _196  and  _198
REMARK   77  A    between atoms: _198  and  _199
REMARK   78  A    between atoms: _198  and  _201
REMARK   79  A    between atoms: _201  and  _202
REMARK   80  A    between atoms: _202  and  _352
REMARK   81  A    between atoms: _203  and  _205
REMARK   82  A    between atoms: _205  and  _206
REMARK   83  A    between atoms: _205  and  _208
REMARK   84  A    between atoms: _208  and  _209
REMARK   85  A    between atoms: _209  and  _210
REMARK   86  A    between atoms: _210  and  _211
REMARK   87  A    between atoms: _220  and  _222
REMARK   88  A    between atoms: _222  and  _223
REMARK   89  A    between atoms: _222  and  _225
REMARK   90  A    between atoms: _225  and  _226
REMARK   91  A    between atoms: _226  and  _227
REMARK   92  A    between atoms: _230  and  _232
REMARK   93  A    between atoms: _232  and  _233
REMARK   94  A    between atoms: _232  and  _235
REMARK   95  A    between atoms: _235  and  _236
REMARK   96  A    between atoms: _236  and  _237
REMARK   97  A    between atoms: _237  and  _238
REMARK   98  A    between atoms: _247  and  _249
REMARK   99  A    between atoms: _249  and  _250
REMARK  100  A    between atoms: _249  and  _252
REMARK  101  A    between atoms: _252  and  _253
REMARK  102  A    between atoms: _255  and  _257
REMARK  103  A    between atoms: _257  and  _258
REMARK  104  A    between atoms: _257  and  _260
REMARK  105  A    between atoms: _260  and  _261
REMARK  106  A    between atoms: _266  and  _267
REMARK  107  A    between atoms: _269  and  _271
REMARK  108  A    between atoms: _271  and  _272
REMARK  109  A    between atoms: _271  and  _274
REMARK  110  A    between atoms: _274  and  _275
REMARK  111  A    between atoms: _280  and  _282
REMARK  112  A    between atoms: _282  and  _283
REMARK  113  A    between atoms: _282  and  _285
REMARK  114  A    between atoms: _288  and  _290
REMARK  115  A    between atoms: _290  and  _291
REMARK  116  A    between atoms: _290  and  _293
REMARK  117  A    between atoms: _293  and  _294
REMARK  118  A    between atoms: _294  and  _295
REMARK  119  A    between atoms: _295  and  _296
REMARK  120  A    between atoms: _305  and  _307
REMARK  121  A    between atoms: _307  and  _308
REMARK  122  A    between atoms: _307  and  _310
REMARK  123  A    between atoms: _310  and  _311
REMARK  124  A    between atoms: _316  and  _318
REMARK  125  A    between atoms: _318  and  _319
REMARK  126  A    between atoms: _318  and  _321
REMARK  127  A    between atoms: _321  and  _322
REMARK  128  A    between atoms: _325  and  _327
REMARK  129  A    between atoms: _327  and  _328
REMARK  130  A    between atoms: _330  and  _332
REMARK  131  A    between atoms: _332  and  _333
REMARK  132  A    between atoms: _332  and  _335
REMARK  133  A    between atoms: _335  and  _336
REMARK  134  A    between atoms: _346  and  _348
REMARK  135  A    between atoms: _348  and  _349
REMARK  136  A    between atoms: _348  and  _351
REMARK  137  A    between atoms: _351  and  _352
REMARK  138  A    between atoms: _353  and  _355
REMARK  139  A    between atoms: _355  and  _356
REMARK  140  A    between atoms: _355  and  _358
REMARK  141  A    between atoms: _358  and  _359
REMARK  142  A    between atoms: _362  and  _364
REMARK  143  A    between atoms: _364  and  _365
REMARK  144  A    between atoms: _367  and  _369
REMARK  145  A    between atoms: _369  and  _370
REMARK  146  A    between atoms: _369  and  _372
REMARK  147  A    between atoms: _372  and  _373
REMARK  148  A    between atoms: _378  and  _379
REMARK  149  A    between atoms: _381  and  _383
REMARK  150  A    between atoms: _383  and  _384
REMARK  151  A    between atoms: _383  and  _386
REMARK  152  A    between atoms: _386  and  _387
REMARK  153  A    between atoms: _387  and  _388
REMARK  154  A    between atoms: _388  and  _389
REMARK  155  A    between atoms: _398  and  _400
REMARK  156  A    between atoms: _400  and  _401
REMARK  157  A    between atoms: _400  and  _403
REMARK  158  A    between atoms: _403  and  _404
REMARK  159  A    between atoms: _407  and  _409
REMARK  160  A    between atoms: _409  and  _410
REMARK  161  A    between atoms: _409  and  _412
REMARK  162  A    between atoms: _412  and  _413
REMARK  163  A    between atoms: _413  and  _414
REMARK  164  A    between atoms: _414  and  _415
REMARK  165  A    between atoms: _415  and  _416
REMARK  166  A    between atoms: _420  and  _422
REMARK  167  A    between atoms: _422  and  _423
REMARK  168  A    between atoms: _425  and  _427
REMARK  169  A    between atoms: _427  and  _428
REMARK  170  A    between atoms: _431  and  _433
REMARK  171  A    between atoms: _433  and  _434
REMARK  172  A    between atoms: _433  and  _436
REMARK  173  A    between atoms: _436  and  _437
REMARK  174  A    between atoms: _442  and  _444
REMARK  175  A    between atoms: _444  and  _445
REMARK  176  A    between atoms: _448  and  _450
REMARK  177  A    between atoms: _450  and  _451
REMARK  178  A    between atoms: _454  and  _455
REMARK  179  A    between atoms: _460  and  _462
REMARK  180  A    between atoms: _462  and  _463
REMARK  181  A    between atoms: _462  and  _465
REMARK  182  A    between atoms: _465  and  _466
REMARK  183  A    between atoms: _469  and  _471
REMARK  184  A    between atoms: _471  and  _472
REMARK  185  A    between atoms: _471  and  _474
REMARK  186  A    between atoms: _474  and  _475
REMARK  187  A    between atoms: _485  and  _487
REMARK  188  A    between atoms: _487  and  _488
REMARK  189  A    between atoms: _487  and  _490
REMARK  190  A    between atoms: _490  and  _491
REMARK  191  A    between atoms: _497  and  _498
REMARK  192  A    between atoms: _503  and  _505
REMARK  193  A    between atoms: _505  and  _506
REMARK  194  A    between atoms: _505  and  _508
REMARK  195  A    between atoms: _508  and  _509
REMARK  196  A    between atoms: _514  and  _516
REMARK  197  A    between atoms: _516  and  _517
REMARK  198  A    between atoms: _516  and  _519
REMARK  199  A    between atoms: _522  and  _524
REMARK  200  A    between atoms: _524  and  _525
REMARK  201  A    between atoms: _524  and  _527
REMARK  202  A    between atoms: _527  and  _528
REMARK  203  A    between atoms: _528  and  _529
REMARK  204  A    between atoms: _535  and  _536
REMARK  205  A    between atoms: _541  and  _543
REMARK  206  A    between atoms: _543  and  _544
REMARK  207  A    between atoms: _543  and  _546
REMARK  208  A    between atoms: _546  and  _547
REMARK  209  A    between atoms: _550  and  _552
REMARK  210  A    between atoms: _552  and  _553
REMARK  211  A    between atoms: _552  and  _555
REMARK  212  A    between atoms: _555  and  _556
REMARK  213  A    between atoms: _558  and  _560
REMARK  214  A    between atoms: _560  and  _561
REMARK  215  A    between atoms: _560  and  _563
REMARK  216  A    between atoms: _563  and  _564
REMARK  217  A    between atoms: _569  and  _570
REMARK  218  A    between atoms: _572  and  _574
REMARK  219  A    between atoms: _574  and  _575
REMARK  220  A    between atoms: _574  and  _577
REMARK  221  A    between atoms: _577  and  _578
REMARK  222  A    between atoms: _588  and  _590
REMARK  223  A    between atoms: _590  and  _591
REMARK  224  A    between atoms: _593  and  _595
REMARK  225  A    between atoms: _595  and  _596
REMARK  226  A    between atoms: _599  and  _601
REMARK  227  A    between atoms: _601  and  _602
REMARK  228  A    between atoms: _601  and  _604
REMARK  229  A    between atoms: _604  and  _605
REMARK  230  A    between atoms: _610  and  _612
REMARK  231  A    between atoms: _612  and  _613
REMARK  232  A    between atoms: _616  and  _618
REMARK  233  A    between atoms: _618  and  _619
REMARK  234  A    between atoms: _622  and  _623
REMARK  235  A    between atoms: _628  and  _630
REMARK  236  A    between atoms: _630  and  _631
REMARK  237  A    between atoms: _630  and  _633
REMARK  238  A    between atoms: _633  and  _634
REMARK  239  A    between atoms: _637  and  _639
REMARK  240  A    between atoms: _639  and  _640
REMARK  241  A    between atoms: _639  and  _642
REMARK  242  A    between atoms: _642  and  _643
REMARK  243  A    between atoms: _653  and  _655
REMARK  244  A    between atoms: _655  and  _656
REMARK  245  A    between atoms: _655  and  _658
REMARK  246  A    between atoms: _658  and  _659
REMARK  247  A    between atoms: _664  and  _666
REMARK  248  A    between atoms: _666  and  _667
REMARK  249  A    between atoms: _666  and  _669
REMARK  250  A    between atoms: _669  and  _670
REMARK  251  A    between atoms: _673  and  _675
REMARK  252  A    between atoms: _675  and  _676
REMARK  253  A    between atoms: _675  and  _678
REMARK  254  A    between atoms: _678  and  _679
REMARK  255  A    between atoms: _679  and  _680
REMARK  256  A    between atoms: _683  and  _685
REMARK  257  A    between atoms: _685  and  _686
REMARK  258  A    between atoms: _685  and  _688
REMARK  259  A    between atoms: _688  and  _689
REMARK  260  A    between atoms: _689  and  _690
REMARK  261  A    between atoms: _690  and  _691
REMARK  262  A    between atoms: _691  and  _692
REMARK  263  A    between atoms: _696  and  _698
REMARK  264  A    between atoms: _698  and  _699
REMARK  265  A    between atoms: _698  and  _701
REMARK  266  A    between atoms: _701  and  _702
REMARK  267  A    between atoms: _707  and  _709
REMARK  268  A    between atoms: _709  and  _710
REMARK  269  A    between atoms: _709  and  _712
REMARK  270  A    between atoms: _712  and  _713
REMARK  271  A    between atoms: _713  and  _714
REMARK  272  A    between atoms: _714  and  _715
REMARK  273  A    between atoms: _724  and  _726
REMARK  274  A    between atoms: _726  and  _727
REMARK  275  A    between atoms: _726  and  _729
REMARK  276  A    between atoms: _729  and  _730
REMARK  277  A    between atoms: _733  and  _735
REMARK  278  A    between atoms: _735  and  _736
REMARK  279  A    between atoms: _735  and  _738
REMARK  280  A    between atoms: _741  and  _743
REMARK  281  A    between atoms: _743  and  _744
REMARK  282  A    between atoms: _743  and  _746
REMARK  283  A    between atoms: _746  and  _747
REMARK  284  A    between atoms: _747  and  _748
REMARK  285  A    between atoms: _754  and  _755
REMARK  286  A    between atoms: _760  and  _762
REMARK  287  A    between atoms: _762  and  _763
REMARK  288  A    between atoms: _762  and  _765
REMARK  289  A    between atoms: _765  and  _766
REMARK  290  A    between atoms: _769  and  _771
REMARK  291  A    between atoms: _771  and  _772
REMARK  292  A    between atoms: _771  and  _774
REMARK  293  A    between atoms: _774  and  _775
REMARK  294  A    between atoms: _775  and  _776
REMARK  295  A    between atoms: _776  and  _777
REMARK  296  A    between atoms: _786  and  _788
REMARK  297  A    between atoms: _788  and  _789
REMARK                            x       y       z     vdW  Elec       q    Type
REMARK                         _______ _______ _______ _____ _____    ______ ____
ROOT
ATOM      1  O   HOH     1      11.775  10.061 -26.874  0.00  0.00    +0.000 OA
ENDROOT
TORSDOF 0
REMARK  Name = ../refined-set-2016/3o4k/3o4k_pocket.pdb
REMARK  297 active torsions:
REMARK  status: ('A' for Active; 'I' for Inactive)
REMARK    1  A    between atoms: _1  and  _3
REMARK    2  A    between atoms: _3  and  _4
REMARK    3  A    between atoms: _3  and  _6
REMARK    4  A    between atoms: _6  and  _7
REMARK    5  A    between atoms: _7  and  _8
REMARK    6  A    between atoms: _8  and  _9
REMARK    7  A    between atoms: _18  and  _20
REMARK    8  A    between atoms: _20  and  _21
REMARK    9  A    between atoms: _20  and  _23
REMARK   10  A    between atoms: _23  and  _24
REMARK   11  A    between atoms: _29  and  _30
REMARK   12  A    between atoms: _32  and  _34
REMARK   13  A    between atoms: _34  and  _35
REMARK   14  A    between atoms: _34  and  _37
REMARK   15  A    between atoms: _37  and  _38
REMARK   16  A    between atoms: _48  and  _50
REMARK   17  A    between atoms: _50  and  _51
REMARK   18  A    between atoms: _50  and  _53
REMARK   19  A    between atoms: _53  and  _54
REMARK   20  A    between atoms: _54  and  _55
REMARK   21  A    between atoms: _55  and  _56
REMARK   22  A    between atoms: _65  and  _67
REMARK   23  A    between atoms: _67  and  _68
REMARK   24  A    between atoms: _67  and  _70
REMARK   25  A    between atoms: _70  and  _71
REMARK   26  A    between atoms: _73  and  _75
REMARK   27  A    between atoms: _75  and  _76
REMARK   28  A    between atoms: _75  and  _78
REMARK   29  A    between atoms: _78  and  _79
REMARK   30  A    between atoms: _84  and  _86
REMARK   31  A    between atoms: _86  and  _87
REMARK   32  A    between atoms: _86  and  _89
REMARK   33  A    between atoms: _89  and  _90
REMARK   34  A    between atoms: _95  and  _96
REMARK   35  A    between atoms: _98  and  _100
REMARK   36  A    between atoms: _100  and  _101
REMARK   37  A    between atoms: _100  and  _103
REMARK   38  A    between atoms: _103  and  _104
REMARK   39  A    between atoms: _104  and  _105
REMARK   40  A    between atoms: _108  and  _110
REMARK   41  A    between atoms: _110  and  _111
REMARK   42  A    between atoms: _110  and  _113
REMARK   43  A    between atoms: _116  and  _118
REMARK   44  A    between atoms: _118  and  _119
REMARK   45  A    between atoms: _118  and  _121
REMARK   46  A    between atoms: _121  and  _122
REMARK   47  A    between atoms: _122  and  _123
REMARK   48  A    between atoms: _123  and  _124
REMARK   49  A    between atoms: _124  and  _125
REMARK   50  A    between atoms: _129  and  _131
REMARK   51  A    between atoms: _131  and  _132
REMARK   52  A    between atoms: _131  and  _134
REMARK   53  A    between atoms: _134  and  _135
REMARK   54  A    between atoms: _140  and  _142
REMARK   55  A    between atoms: _142  and  _143
REMARK   56  A    between atoms: _142  and  _145
REMARK   57  A    between atoms: _145  and  _146
REMARK   58  A    between atoms: _151  and  _152
REMARK   59  A    between atoms: _154  and  _156
REMARK   60  A    between atoms: _156  and  _157
REMARK   61  A    between atoms: _156  and  _159
REMARK   62  A    between atoms: _159  and  _160
REMARK   63  A    between atoms: _160  and  _161
REMARK   64  A    between atoms: _161  and  _162
REMARK   65  A    between atoms: _171  and  _173
REMARK   66  A    between atoms: _173  and  _174
REMARK   67  A    between atoms: _178  and  _180
REMARK   68  A    between atoms: _180  and  _181
REMARK   69  A    between atoms: _180  and  _183
REMARK   70  A    between atoms: _183  and  _184
REMARK   71  A    between atoms: _186  and  _188
REMARK   72  A    between atoms: _188  and  _189
REMARK   73  A    between atoms: _188  and  _191
REMARK   74  A    between atoms: _191  and  _192
REMARK   75  A    between atoms: _192  and  _193
REMARK   76  A    between atoms: _196  and  _198
REMARK   77  A    between atoms: _198  and  _199
REMARK   78  A    between atoms: _198  and  _201
REMARK   79  A    between atoms: _201  and  _202
REMARK   80  A    between atoms: _202  and  _352
REMARK   81  A    between atoms: _203  and  _205
REMARK   82  A    between atoms: _205  and  _206
REMARK   83  A    between atoms: _205  and  _208
REMARK   84  A    between atoms: _208  and  _209
REMARK   85  A    between atoms: _209  and  _210
REMARK   86  A    between atoms: _210  and  _211
REMARK   87  A    between atoms: _220  and  _222
REMARK   88  A    between atoms: _222  and  _223
REMARK   89  A    between atoms: _222  and  _225
REMARK   90  A    between atoms: _225  and  _226
REMARK   91  A    between atoms: _226  and  _227
REMARK   92  A    between atoms: _230  and  _232
REMARK   93  A    between atoms: _232  and  _233
REMARK   94  A    between atoms: _232  and  _235
REMARK   95  A    between atoms: _235  and  _236
REMARK   96  A    between atoms: _236  and  _237
REMARK   97  A    between atoms: _237  and  _238
REMARK   98  A    between atoms: _247  and  _249
REMARK   99  A    between atoms: _249  and  _250
REMARK  100  A    between atoms: _249  and  _252
REMARK  101  A    between atoms: _252  and  _253
REMARK  102  A    between atoms: _255  and  _257
REMARK  103  A    between atoms: _257  and  _258
REMARK  104  A    between atoms: _257  and  _260
REMARK  105  A    between atoms: _260  and  _261
REMARK  106  A    between atoms: _266  and  _267
REMARK  107  A    between atoms: _269  and  _271
REMARK  108  A    between atoms: _271  and  _272
REMARK  109  A    between atoms: _271  and  _274
REMARK  110  A    between atoms: _274  and  _275
REMARK  111  A    between atoms: _280  and  _282
REMARK  112  A    between atoms: _282  and  _283
REMARK  113  A    between atoms: _282  and  _285
REMARK  114  A    between atoms: _288  and  _290
REMARK  115  A    between atoms: _290  and  _291
REMARK  116  A    between atoms: _290  and  _293
REMARK  117  A    between atoms: _293  and  _294
REMARK  118  A    between atoms: _294  and  _295
REMARK  119  A    between atoms: _295  and  _296
REMARK  120  A    between atoms: _305  and  _307
REMARK  121  A    between atoms: _307  and  _308
REMARK  122  A    between atoms: _307  and  _310
REMARK  123  A    between atoms: _310  and  _311
REMARK  124  A    between atoms: _316  and  _318
REMARK  125  A    between atoms: _318  and  _319
REMARK  126  A    between atoms: _318  and  _321
REMARK  127  A    between atoms: _321  and  _322
REMARK  128  A    between atoms: _325  and  _327
REMARK  129  A    between atoms: _327  and  _328
REMARK  130  A    between atoms: _330  and  _332
REMARK  131  A    between atoms: _332  and  _333
REMARK  132  A    between atoms: _332  and  _335
REMARK  133  A    between atoms: _335  and  _336
REMARK  134  A    between atoms: _346  and  _348
REMARK  135  A    between atoms: _348  and  _349
REMARK  136  A    between atoms: _348  and  _351
REMARK  137  A    between atoms: _351  and  _352
REMARK  138  A    between atoms: _353  and  _355
REMARK  139  A    between atoms: _355  and  _356
REMARK  140  A    between atoms: _355  and  _358
REMARK  141  A    between atoms: _358  and  _359
REMARK  142  A    between atoms: _362  and  _364
REMARK  143  A    between atoms: _364  and  _365
REMARK  144  A    between atoms: _367  and  _369
REMARK  145  A    between atoms: _369  and  _370
REMARK  146  A    between atoms: _369  and  _372
REMARK  147  A    between atoms: _372  and  _373
REMARK  148  A    between atoms: _378  and  _379
REMARK  149  A    between atoms: _381  and  _383
REMARK  150  A    between atoms: _383  and  _384
REMARK  151  A    between atoms: _383  and  _386
REMARK  152  A    between atoms: _386  and  _387
REMARK  153  A    between atoms: _387  and  _388
REMARK  154  A    between atoms: _388  and  _389
REMARK  155  A    between atoms: _398  and  _400
REMARK  156  A    between atoms: _400  and  _401
REMARK  157  A    between atoms: _400  and  _403
REMARK  158  A    between atoms: _403  and  _404
REMARK  159  A    between atoms: _407  and  _409
REMARK  160  A    between atoms: _409  and  _410
REMARK  161  A    between atoms: _409  and  _412
REMARK  162  A    between atoms: _412  and  _413
REMARK  163  A    between atoms: _413  and  _414
REMARK  164  A    between atoms: _414  and  _415
REMARK  165  A    between atoms: _415  and  _416
REMARK  166  A    between atoms: _420  and  _422
REMARK  167  A    between atoms: _422  and  _423
REMARK  168  A    between atoms: _425  and  _427
REMARK  169  A    between atoms: _427  and  _428
REMARK  170  A    between atoms: _431  and  _433
REMARK  171  A    between atoms: _433  and  _434
REMARK  172  A    between atoms: _433  and  _436
REMARK  173  A    between atoms: _436  and  _437
REMARK  174  A    between atoms: _442  and  _444
REMARK  175  A    between atoms: _444  and  _445
REMARK  176  A    between atoms: _448  and  _450
REMARK  177  A    between atoms: _450  and  _451
REMARK  178  A    between atoms: _454  and  _455
REMARK  179  A    between atoms: _460  and  _462
REMARK  180  A    between atoms: _462  and  _463
REMARK  181  A    between atoms: _462  and  _465
REMARK  182  A    between atoms: _465  and  _466
REMARK  183  A    between atoms: _469  and  _471
REMARK  184  A    between atoms: _471  and  _472
REMARK  185  A    between atoms: _471  and  _474
REMARK  186  A    between atoms: _474  and  _475
REMARK  187  A    between atoms: _485  and  _487
REMARK  188  A    between atoms: _487  and  _488
REMARK  189  A    between atoms: _487  and  _490
REMARK  190  A    between atoms: _490  and  _491
REMARK  191  A    between atoms: _497  and  _498
REMARK  192  A    between atoms: _503  and  _505
REMARK  193  A    between atoms: _505  and  _506
REMARK  194  A    between atoms: _505  and  _508
REMARK  195  A    between atoms: _508  and  _509
REMARK  196  A    between atoms: _514  and  _516
REMARK  197  A    between atoms: _516  and  _517
REMARK  198  A    between atoms: _516  and  _519
REMARK  199  A    between atoms: _522  and  _524
REMARK  200  A    between atoms: _524  and  _525
REMARK  201  A    between atoms: _524  and  _527
REMARK  202  A    between atoms: _527  and  _528
REMARK  203  A    between atoms: _528  and  _529
REMARK  204  A    between atoms: _535  and  _536
REMARK  205  A    between atoms: _541  and  _543
REMARK  206  A    between atoms: _543  and  _544
REMARK  207  A    between atoms: _543  and  _546
REMARK  208  A    between atoms: _546  and  _547
REMARK  209  A    between atoms: _550  and  _552
REMARK  210  A    between atoms: _552  and  _553
REMARK  211  A    between atoms: _552  and  _555
REMARK  212  A    between atoms: _555  and  _556
REMARK  213  A    between atoms: _558  and  _560
REMARK  214  A    between atoms: _560  and  _561
REMARK  215  A    between atoms: _560  and  _563
REMARK  216  A    between atoms: _563  and  _564
REMARK  217  A    between atoms: _569  and  _570
REMARK  218  A    between atoms: _572  and  _574
REMARK  219  A    between atoms: _574  and  _575
REMARK  220  A    between atoms: _574  and  _577
REMARK  221  A    between atoms: _577  and  _578
REMARK  222  A    between atoms: _588  and  _590
REMARK  223  A    between atoms: _590  and  _591
REMARK  224  A    between atoms: _593  and  _595
REMARK  225  A    between atoms: _595  and  _596
REMARK  226  A    between atoms: _599  and  _601
REMARK  227  A    between atoms: _601  and  _602
REMARK  228  A    between atoms: _601  and  _604
REMARK  229  A    between atoms: _604  and  _605
REMARK  230  A    between atoms: _610  and  _612
REMARK  231  A    between atoms: _612  and  _613
REMARK  232  A    between atoms: _616  and  _618
REMARK  233  A    between atoms: _618  and  _619
REMARK  234  A    between atoms: _622  and  _623
REMARK  235  A    between atoms: _628  and  _630
REMARK  236  A    between atoms: _630  and  _631
REMARK  237  A    between atoms: _630  and  _633
REMARK  238  A    between atoms: _633  and  _634
REMARK  239  A    between atoms: _637  and  _639
REMARK  240  A    between atoms: _639  and  _640
REMARK  241  A    between atoms: _639  and  _642
REMARK  242  A    between atoms: _642  and  _643
REMARK  243  A    between atoms: _653  and  _655
REMARK  244  A    between atoms: _655  and  _656
REMARK  245  A    between atoms: _655  and  _658
REMARK  246  A    between atoms: _658  and  _659
REMARK  247  A    between atoms: _664  and  _666
REMARK  248  A    between atoms: _666  and  _667
REMARK  249  A    between atoms: _666  and  _669
REMARK  250  A    between atoms: _669  and  _670
REMARK  251  A    between atoms: _673  and  _675
REMARK  252  A    between atoms: _675  and  _676
REMARK  253  A    between atoms: _675  and  _678
REMARK  254  A    between atoms: _678  and  _679
REMARK  255  A    between atoms: _679  and  _680
REMARK  256  A    between atoms: _683  and  _685
REMARK  257  A    between atoms: _685  and  _686
REMARK  258  A    between atoms: _685  and  _688
REMARK  259  A    between atoms: _688  and  _689
REMARK  260  A    between atoms: _689  and  _690
REMARK  261  A    between atoms: _690  and  _691
REMARK  262  A    between atoms: _691  and  _692
REMARK  263  A    between atoms: _696  and  _698
REMARK  264  A    between atoms: _698  and  _699
REMARK  265  A    between atoms: _698  and  _701
REMARK  266  A    between atoms: _701  and  _702
REMARK  267  A    between atoms: _707  and  _709
REMARK  268  A    between atoms: _709  and  _710
REMARK  269  A    between atoms: _709  and  _712
REMARK  270  A    between atoms: _712  and  _713
REMARK  271  A    between atoms: _713  and  _714
REMARK  272  A    between atoms: _714  and  _715
REMARK  273  A    between atoms: _724  and  _726
REMARK  274  A    between atoms: _726  and  _727
REMARK  275  A    between atoms: _726  and  _729
REMARK  276  A    between atoms: _729  and  _730
REMARK  277  A    between atoms: _733  and  _735
REMARK  278  A    between atoms: _735  and  _736
REMARK  279  A    between atoms: _735  and  _738
REMARK  280  A    between atoms: _741  and  _743
REMARK  281  A    between atoms: _743  and  _744
REMARK  282  A    between atoms: _743  and  _746
REMARK  283  A    between atoms: _746  and  _747
REMARK  284  A    between atoms: _747  and  _748
REMARK  285  A    between atoms: _754  and  _755
REMARK  286  A    between atoms: _760  and  _762
REMARK  287  A    between atoms: _762  and  _763
REMARK  288  A    between atoms: _762  and  _765
REMARK  289  A    between atoms: _765  and  _766
REMARK  290  A    between atoms: _769  and  _771
REMARK  291  A    between atoms: _771  and  _772
REMARK  292  A    between atoms: _771  and  _774
REMARK  293  A    between atoms: _774  and  _775
REMARK  294  A    between atoms: _775  and  _776
REMARK  295  A    between atoms: _776  and  _777
REMARK  296  A    between atoms: _786  and  _788
REMARK  297  A    between atoms: _788  and  _789
REMARK                            x       y       z     vdW  Elec       q    Type
REMARK                         _______ _______ _______ _____ _____    ______ ____
ROOT
ATOM      1  O   HOH     1       7.733  16.826 -32.130  0.00  0.00    +0.000 OA
ENDROOT
TORSDOF 0
REMARK  Name = ../refined-set-2016/3o4k/3o4k_pocket.pdb
REMARK  297 active torsions:
REMARK  status: ('A' for Active; 'I' for Inactive)
REMARK    1  A    between atoms: _1  and  _3
REMARK    2  A    between atoms: _3  and  _4
REMARK    3  A    between atoms: _3  and  _6
REMARK    4  A    between atoms: _6  and  _7
REMARK    5  A    between atoms: _7  and  _8
REMARK    6  A    between atoms: _8  and  _9
REMARK    7  A    between atoms: _18  and  _20
REMARK    8  A    between atoms: _20  and  _21
REMARK    9  A    between atoms: _20  and  _23
REMARK   10  A    between atoms: _23  and  _24
REMARK   11  A    between atoms: _29  and  _30
REMARK   12  A    between atoms: _32  and  _34
REMARK   13  A    between atoms: _34  and  _35
REMARK   14  A    between atoms: _34  and  _37
REMARK   15  A    between atoms: _37  and  _38
REMARK   16  A    between atoms: _48  and  _50
REMARK   17  A    between atoms: _50  and  _51
REMARK   18  A    between atoms: _50  and  _53
REMARK   19  A    between atoms: _53  and  _54
REMARK   20  A    between atoms: _54  and  _55
REMARK   21  A    between atoms: _55  and  _56
REMARK   22  A    between atoms: _65  and  _67
REMARK   23  A    between atoms: _67  and  _68
REMARK   24  A    between atoms: _67  and  _70
REMARK   25  A    between atoms: _70  and  _71
REMARK   26  A    between atoms: _73  and  _75
REMARK   27  A    between atoms: _75  and  _76
REMARK   28  A    between atoms: _75  and  _78
REMARK   29  A    between atoms: _78  and  _79
REMARK   30  A    between atoms: _84  and  _86
REMARK   31  A    between atoms: _86  and  _87
REMARK   32  A    between atoms: _86  and  _89
REMARK   33  A    between atoms: _89  and  _90
REMARK   34  A    between atoms: _95  and  _96
REMARK   35  A    between atoms: _98  and  _100
REMARK   36  A    between atoms: _100  and  _101
REMARK   37  A    between atoms: _100  and  _103
REMARK   38  A    between atoms: _103  and  _104
REMARK   39  A    between atoms: _104  and  _105
REMARK   40  A    between atoms: _108  and  _110
REMARK   41  A    between atoms: _110  and  _111
REMARK   42  A    between atoms: _110  and  _113
REMARK   43  A    between atoms: _116  and  _118
REMARK   44  A    between atoms: _118  and  _119
REMARK   45  A    between atoms: _118  and  _121
REMARK   46  A    between atoms: _121  and  _122
REMARK   47  A    between atoms: _122  and  _123
REMARK   48  A    between atoms: _123  and  _124
REMARK   49  A    between atoms: _124  and  _125
REMARK   50  A    between atoms: _129  and  _131
REMARK   51  A    between atoms: _131  and  _132
REMARK   52  A    between atoms: _131  and  _134
REMARK   53  A    between atoms: _134  and  _135
REMARK   54  A    between atoms: _140  and  _142
REMARK   55  A    between atoms: _142  and  _143
REMARK   56  A    between atoms: _142  and  _145
REMARK   57  A    between atoms: _145  and  _146
REMARK   58  A    between atoms: _151  and  _152
REMARK   59  A    between atoms: _154  and  _156
REMARK   60  A    between atoms: _156  and  _157
REMARK   61  A    between atoms: _156  and  _159
REMARK   62  A    between atoms: _159  and  _160
REMARK   63  A    between atoms: _160  and  _161
REMARK   64  A    between atoms: _161  and  _162
REMARK   65  A    between atoms: _171  and  _173
REMARK   66  A    between atoms: _173  and  _174
REMARK   67  A    between atoms: _178  and  _180
REMARK   68  A    between atoms: _180  and  _181
REMARK   69  A    between atoms: _180  and  _183
REMARK   70  A    between atoms: _183  and  _184
REMARK   71  A    between atoms: _186  and  _188
REMARK   72  A    between atoms: _188  and  _189
REMARK   73  A    between atoms: _188  and  _191
REMARK   74  A    between atoms: _191  and  _192
REMARK   75  A    between atoms: _192  and  _193
REMARK   76  A    between atoms: _196  and  _198
REMARK   77  A    between atoms: _198  and  _199
REMARK   78  A    between atoms: _198  and  _201
REMARK   79  A    between atoms: _201  and  _202
REMARK   80  A    between atoms: _202  and  _352
REMARK   81  A    between atoms: _203  and  _205
REMARK   82  A    between atoms: _205  and  _206
REMARK   83  A    between atoms: _205  and  _208
REMARK   84  A    between atoms: _208  and  _209
REMARK   85  A    between atoms: _209  and  _210
REMARK   86  A    between atoms: _210  and  _211
REMARK   87  A    between atoms: _220  and  _222
REMARK   88  A    between atoms: _222  and  _223
REMARK   89  A    between atoms: _222  and  _225
REMARK   90  A    between atoms: _225  and  _226
REMARK   91  A    between atoms: _226  and  _227
REMARK   92  A    between atoms: _230  and  _232
REMARK   93  A    between atoms: _232  and  _233
REMARK   94  A    between atoms: _232  and  _235
REMARK   95  A    between atoms: _235  and  _236
REMARK   96  A    between atoms: _236  and  _237
REMARK   97  A    between atoms: _237  and  _238
REMARK   98  A    between atoms: _247  and  _249
REMARK   99  A    between atoms: _249  and  _250
REMARK  100  A    between atoms: _249  and  _252
REMARK  101  A    between atoms: _252  and  _253
REMARK  102  A    between atoms: _255  and  _257
REMARK  103  A    between atoms: _257  and  _258
REMARK  104  A    between atoms: _257  and  _260
REMARK  105  A    between atoms: _260  and  _261
REMARK  106  A    between atoms: _266  and  _267
REMARK  107  A    between atoms: _269  and  _271
REMARK  108  A    between atoms: _271  and  _272
REMARK  109  A    between atoms: _271  and  _274
REMARK  110  A    between atoms: _274  and  _275
REMARK  111  A    between atoms: _280  and  _282
REMARK  112  A    between atoms: _282  and  _283
REMARK  113  A    between atoms: _282  and  _285
REMARK  114  A    between atoms: _288  and  _290
REMARK  115  A    between atoms: _290  and  _291
REMARK  116  A    between atoms: _290  and  _293
REMARK  117  A    between atoms: _293  and  _294
REMARK  118  A    between atoms: _294  and  _295
REMARK  119  A    between atoms: _295  and  _296
REMARK  120  A    between atoms: _305  and  _307
REMARK  121  A    between atoms: _307  and  _308
REMARK  122  A    between atoms: _307  and  _310
REMARK  123  A    between atoms: _310  and  _311
REMARK  124  A    between atoms: _316  and  _318
REMARK  125  A    between atoms: _318  and  _319
REMARK  126  A    between atoms: _318  and  _321
REMARK  127  A    between atoms: _321  and  _322
REMARK  128  A    between atoms: _325  and  _327
REMARK  129  A    between atoms: _327  and  _328
REMARK  130  A    between atoms: _330  and  _332
REMARK  131  A    between atoms: _332  and  _333
REMARK  132  A    between atoms: _332  and  _335
REMARK  133  A    between atoms: _335  and  _336
REMARK  134  A    between atoms: _346  and  _348
REMARK  135  A    between atoms: _348  and  _349
REMARK  136  A    between atoms: _348  and  _351
REMARK  137  A    between atoms: _351  and  _352
REMARK  138  A    between atoms: _353  and  _355
REMARK  139  A    between atoms: _355  and  _356
REMARK  140  A    between atoms: _355  and  _358
REMARK  141  A    between atoms: _358  and  _359
REMARK  142  A    between atoms: _362  and  _364
REMARK  143  A    between atoms: _364  and  _365
REMARK  144  A    between atoms: _367  and  _369
REMARK  145  A    between atoms: _369  and  _370
REMARK  146  A    between atoms: _369  and  _372
REMARK  147  A    between atoms: _372  and  _373
REMARK  148  A    between atoms: _378  and  _379
REMARK  149  A    between atoms: _381  and  _383
REMARK  150  A    between atoms: _383  and  _384
REMARK  151  A    between atoms: _383  and  _386
REMARK  152  A    between atoms: _386  and  _387
REMARK  153  A    between atoms: _387  and  _388
REMARK  154  A    between atoms: _388  and  _389
REMARK  155  A    between atoms: _398  and  _400
REMARK  156  A    between atoms: _400  and  _401
REMARK  157  A    between atoms: _400  and  _403
REMARK  158  A    between atoms: _403  and  _404
REMARK  159  A    between atoms: _407  and  _409
REMARK  160  A    between atoms: _409  and  _410
REMARK  161  A    between atoms: _409  and  _412
REMARK  162  A    between atoms: _412  and  _413
REMARK  163  A    between atoms: _413  and  _414
REMARK  164  A    between atoms: _414  and  _415
REMARK  165  A    between atoms: _415  and  _416
REMARK  166  A    between atoms: _420  and  _422
REMARK  167  A    between atoms: _422  and  _423
REMARK  168  A    between atoms: _425  and  _427
REMARK  169  A    between atoms: _427  and  _428
REMARK  170  A    between atoms: _431  and  _433
REMARK  171  A    between atoms: _433  and  _434
REMARK  172  A    between atoms: _433  and  _436
REMARK  173  A    between atoms: _436  and  _437
REMARK  174  A    between atoms: _442  and  _444
REMARK  175  A    between atoms: _444  and  _445
REMARK  176  A    between atoms: _448  and  _450
REMARK  177  A    between atoms: _450  and  _451
REMARK  178  A    between atoms: _454  and  _455
REMARK  179  A    between atoms: _460  and  _462
REMARK  180  A    between atoms: _462  and  _463
REMARK  181  A    between atoms: _462  and  _465
REMARK  182  A    between atoms: _465  and  _466
REMARK  183  A    between atoms: _469  and  _471
REMARK  184  A    between atoms: _471  and  _472
REMARK  185  A    between atoms: _471  and  _474
REMARK  186  A    between atoms: _474  and  _475
REMARK  187  A    between atoms: _485  and  _487
REMARK  188  A    between atoms: _487  and  _488
REMARK  189  A    between atoms: _487  and  _490
REMARK  190  A    between atoms: _490  and  _491
REMARK  191  A    between atoms: _497  and  _498
REMARK  192  A    between atoms: _503  and  _505
REMARK  193  A    between atoms: _505  and  _506
REMARK  194  A    between atoms: _505  and  _508
REMARK  195  A    between atoms: _508  and  _509
REMARK  196  A    between atoms: _514  and  _516
REMARK  197  A    between atoms: _516  and  _517
REMARK  198  A    between atoms: _516  and  _519
REMARK  199  A    between atoms: _522  and  _524
REMARK  200  A    between atoms: _524  and  _525
REMARK  201  A    between atoms: _524  and  _527
REMARK  202  A    between atoms: _527  and  _528
REMARK  203  A    between atoms: _528  and  _529
REMARK  204  A    between atoms: _535  and  _536
REMARK  205  A    between atoms: _541  and  _543
REMARK  206  A    between atoms: _543  and  _544
REMARK  207  A    between atoms: _543  and  _546
REMARK  208  A    between atoms: _546  and  _547
REMARK  209  A    between atoms: _550  and  _552
REMARK  210  A    between atoms: _552  and  _553
REMARK  211  A    between atoms: _552  and  _555
REMARK  212  A    between atoms: _555  and  _556
REMARK  213  A    between atoms: _558  and  _560
REMARK  214  A    between atoms: _560  and  _561
REMARK  215  A    between atoms: _560  and  _563
REMARK  216  A    between atoms: _563  and  _564
REMARK  217  A    between atoms: _569  and  _570
REMARK  218  A    between atoms: _572  and  _574
REMARK  219  A    between atoms: _574  and  _575
REMARK  220  A    between atoms: _574  and  _577
REMARK  221  A    between atoms: _577  and  _578
REMARK  222  A    between atoms: _588  and  _590
REMARK  223  A    between atoms: _590  and  _591
REMARK  224  A    between atoms: _593  and  _595
REMARK  225  A    between atoms: _595  and  _596
REMARK  226  A    between atoms: _599  and  _601
REMARK  227  A    between atoms: _601  and  _602
REMARK  228  A    between atoms: _601  and  _604
REMARK  229  A    between atoms: _604  and  _605
REMARK  230  A    between atoms: _610  and  _612
REMARK  231  A    between atoms: _612  and  _613
REMARK  232  A    between atoms: _616  and  _618
REMARK  233  A    between atoms: _618  and  _619
REMARK  234  A    between atoms: _622  and  _623
REMARK  235  A    between atoms: _628  and  _630
REMARK  236  A    between atoms: _630  and  _631
REMARK  237  A    between atoms: _630  and  _633
REMARK  238  A    between atoms: _633  and  _634
REMARK  239  A    between atoms: _637  and  _639
REMARK  240  A    between atoms: _639  and  _640
REMARK  241  A    between atoms: _639  and  _642
REMARK  242  A    between atoms: _642  and  _643
REMARK  243  A    between atoms: _653  and  _655
REMARK  244  A    between atoms: _655  and  _656
REMARK  245  A    between atoms: _655  and  _658
REMARK  246  A    between atoms: _658  and  _659
REMARK  247  A    between atoms: _664  and  _666
REMARK  248  A    between atoms: _666  and  _667
REMARK  249  A    between atoms: _666  and  _669
REMARK  250  A    between atoms: _669  and  _670
REMARK  251  A    between atoms: _673  and  _675
REMARK  252  A    between atoms: _675  and  _676
REMARK  253  A    between atoms: _675  and  _678
REMARK  254  A    between atoms: _678  and  _679
REMARK  255  A    between atoms: _679  and  _680
REMARK  256  A    between atoms: _683  and  _685
REMARK  257  A    between atoms: _685  and  _686
REMARK  258  A    between atoms: _685  and  _688
REMARK  259  A    between atoms: _688  and  _689
REMARK  260  A    between atoms: _689  and  _690
REMARK  261  A    between atoms: _690  and  _691
REMARK  262  A    between atoms: _691  and  _692
REMARK  263  A    between atoms: _696  and  _698
REMARK  264  A    between atoms: _698  and  _699
REMARK  265  A    between atoms: _698  and  _701
REMARK  266  A    between atoms: _701  and  _702
REMARK  267  A    between atoms: _707  and  _709
REMARK  268  A    between atoms: _709  and  _710
REMARK  269  A    between atoms: _709  and  _712
REMARK  270  A    between atoms: _712  and  _713
REMARK  271  A    between atoms: _713  and  _714
REMARK  272  A    between atoms: _714  and  _715
REMARK  273  A    between atoms: _724  and  _726
REMARK  274  A    between atoms: _726  and  _727
REMARK  275  A    between atoms: _726  and  _729
REMARK  276  A    between atoms: _729  and  _730
REMARK  277  A    between atoms: _733  and  _735
REMARK  278  A    between atoms: _735  and  _736
REMARK  279  A    between atoms: _735  and  _738
REMARK  280  A    between atoms: _741  and  _743
REMARK  281  A    between atoms: _743  and  _744
REMARK  282  A    between atoms: _743  and  _746
REMARK  283  A    between atoms: _746  and  _747
REMARK  284  A    between atoms: _747  and  _748
REMARK  285  A    between atoms: _754  and  _755
REMARK  286  A    between atoms: _760  and  _762
REMARK  287  A    between atoms: _762  and  _763
REMARK  288  A    between atoms: _762  and  _765
REMARK  289  A    between atoms: _765  and  _766
REMARK  290  A    between atoms: _769  and  _771
REMARK  291  A    between atoms: _771  and  _772
REMARK  292  A    between atoms: _771  and  _774
REMARK  293  A    between atoms: _774  and  _775
REMARK  294  A    between atoms: _775  and  _776
REMARK  295  A    between atoms: _776  and  _777
REMARK  296  A    between atoms: _786  and  _788
REMARK  297  A    between atoms: _788  and  _789
REMARK                            x       y       z     vdW  Elec       q    Type
REMARK                         _______ _______ _______ _____ _____    ______ ____
ROOT
ATOM      1  O   HOH     1      16.566  20.056 -29.541  0.00  0.00    +0.000 OA
ENDROOT
TORSDOF 0
REMARK  Name = ../refined-set-2016/3o4k/3o4k_pocket.pdb
REMARK  297 active torsions:
REMARK  status: ('A' for Active; 'I' for Inactive)
REMARK    1  A    between atoms: _1  and  _3
REMARK    2  A    between atoms: _3  and  _4
REMARK    3  A    between atoms: _3  and  _6
REMARK    4  A    between atoms: _6  and  _7
REMARK    5  A    between atoms: _7  and  _8
REMARK    6  A    between atoms: _8  and  _9
REMARK    7  A    between atoms: _18  and  _20
REMARK    8  A    between atoms: _20  and  _21
REMARK    9  A    between atoms: _20  and  _23
REMARK   10  A    between atoms: _23  and  _24
REMARK   11  A    between atoms: _29  and  _30
REMARK   12  A    between atoms: _32  and  _34
REMARK   13  A    between atoms: _34  and  _35
REMARK   14  A    between atoms: _34  and  _37
REMARK   15  A    between atoms: _37  and  _38
REMARK   16  A    between atoms: _48  and  _50
REMARK   17  A    between atoms: _50  and  _51
REMARK   18  A    between atoms: _50  and  _53
REMARK   19  A    between atoms: _53  and  _54
REMARK   20  A    between atoms: _54  and  _55
REMARK   21  A    between atoms: _55  and  _56
REMARK   22  A    between atoms: _65  and  _67
REMARK   23  A    between atoms: _67  and  _68
REMARK   24  A    between atoms: _67  and  _70
REMARK   25  A    between atoms: _70  and  _71
REMARK   26  A    between atoms: _73  and  _75
REMARK   27  A    between atoms: _75  and  _76
REMARK   28  A    between atoms: _75  and  _78
REMARK   29  A    between atoms: _78  and  _79
REMARK   30  A    between atoms: _84  and  _86
REMARK   31  A    between atoms: _86  and  _87
REMARK   32  A    between atoms: _86  and  _89
REMARK   33  A    between atoms: _89  and  _90
REMARK   34  A    between atoms: _95  and  _96
REMARK   35  A    between atoms: _98  and  _100
REMARK   36  A    between atoms: _100  and  _101
REMARK   37  A    between atoms: _100  and  _103
REMARK   38  A    between atoms: _103  and  _104
REMARK   39  A    between atoms: _104  and  _105
REMARK   40  A    between atoms: _108  and  _110
REMARK   41  A    between atoms: _110  and  _111
REMARK   42  A    between atoms: _110  and  _113
REMARK   43  A    between atoms: _116  and  _118
REMARK   44  A    between atoms: _118  and  _119
REMARK   45  A    between atoms: _118  and  _121
REMARK   46  A    between atoms: _121  and  _122
REMARK   47  A    between atoms: _122  and  _123
REMARK   48  A    between atoms: _123  and  _124
REMARK   49  A    between atoms: _124  and  _125
REMARK   50  A    between atoms: _129  and  _131
REMARK   51  A    between atoms: _131  and  _132
REMARK   52  A    between atoms: _131  and  _134
REMARK   53  A    between atoms: _134  and  _135
REMARK   54  A    between atoms: _140  and  _142
REMARK   55  A    between atoms: _142  and  _143
REMARK   56  A    between atoms: _142  and  _145
REMARK   57  A    between atoms: _145  and  _146
REMARK   58  A    between atoms: _151  and  _152
REMARK   59  A    between atoms: _154  and  _156
REMARK   60  A    between atoms: _156  and  _157
REMARK   61  A    between atoms: _156  and  _159
REMARK   62  A    between atoms: _159  and  _160
REMARK   63  A    between atoms: _160  and  _161
REMARK   64  A    between atoms: _161  and  _162
REMARK   65  A    between atoms: _171  and  _173
REMARK   66  A    between atoms: _173  and  _174
REMARK   67  A    between atoms: _178  and  _180
REMARK   68  A    between atoms: _180  and  _181
REMARK   69  A    between atoms: _180  and  _183
REMARK   70  A    between atoms: _183  and  _184
REMARK   71  A    between atoms: _186  and  _188
REMARK   72  A    between atoms: _188  and  _189
REMARK   73  A    between atoms: _188  and  _191
REMARK   74  A    between atoms: _191  and  _192
REMARK   75  A    between atoms: _192  and  _193
REMARK   76  A    between atoms: _196  and  _198
REMARK   77  A    between atoms: _198  and  _199
REMARK   78  A    between atoms: _198  and  _201
REMARK   79  A    between atoms: _201  and  _202
REMARK   80  A    between atoms: _202  and  _352
REMARK   81  A    between atoms: _203  and  _205
REMARK   82  A    between atoms: _205  and  _206
REMARK   83  A    between atoms: _205  and  _208
REMARK   84  A    between atoms: _208  and  _209
REMARK   85  A    between atoms: _209  and  _210
REMARK   86  A    between atoms: _210  and  _211
REMARK   87  A    between atoms: _220  and  _222
REMARK   88  A    between atoms: _222  and  _223
REMARK   89  A    between atoms: _222  and  _225
REMARK   90  A    between atoms: _225  and  _226
REMARK   91  A    between atoms: _226  and  _227
REMARK   92  A    between atoms: _230  and  _232
REMARK   93  A    between atoms: _232  and  _233
REMARK   94  A    between atoms: _232  and  _235
REMARK   95  A    between atoms: _235  and  _236
REMARK   96  A    between atoms: _236  and  _237
REMARK   97  A    between atoms: _237  and  _238
REMARK   98  A    between atoms: _247  and  _249
REMARK   99  A    between atoms: _249  and  _250
REMARK  100  A    between atoms: _249  and  _252
REMARK  101  A    between atoms: _252  and  _253
REMARK  102  A    between atoms: _255  and  _257
REMARK  103  A    between atoms: _257  and  _258
REMARK  104  A    between atoms: _257  and  _260
REMARK  105  A    between atoms: _260  and  _261
REMARK  106  A    between atoms: _266  and  _267
REMARK  107  A    between atoms: _269  and  _271
REMARK  108  A    between atoms: _271  and  _272
REMARK  109  A    between atoms: _271  and  _274
REMARK  110  A    between atoms: _274  and  _275
REMARK  111  A    between atoms: _280  and  _282
REMARK  112  A    between atoms: _282  and  _283
REMARK  113  A    between atoms: _282  and  _285
REMARK  114  A    between atoms: _288  and  _290
REMARK  115  A    between atoms: _290  and  _291
REMARK  116  A    between atoms: _290  and  _293
REMARK  117  A    between atoms: _293  and  _294
REMARK  118  A    between atoms: _294  and  _295
REMARK  119  A    between atoms: _295  and  _296
REMARK  120  A    between atoms: _305  and  _307
REMARK  121  A    between atoms: _307  and  _308
REMARK  122  A    between atoms: _307  and  _310
REMARK  123  A    between atoms: _310  and  _311
REMARK  124  A    between atoms: _316  and  _318
REMARK  125  A    between atoms: _318  and  _319
REMARK  126  A    between atoms: _318  and  _321
REMARK  127  A    between atoms: _321  and  _322
REMARK  128  A    between atoms: _325  and  _327
REMARK  129  A    between atoms: _327  and  _328
REMARK  130  A    between atoms: _330  and  _332
REMARK  131  A    between atoms: _332  and  _333
REMARK  132  A    between atoms: _332  and  _335
REMARK  133  A    between atoms: _335  and  _336
REMARK  134  A    between atoms: _346  and  _348
REMARK  135  A    between atoms: _348  and  _349
REMARK  136  A    between atoms: _348  and  _351
REMARK  137  A    between atoms: _351  and  _352
REMARK  138  A    between atoms: _353  and  _355
REMARK  139  A    between atoms: _355  and  _356
REMARK  140  A    between atoms: _355  and  _358
REMARK  141  A    between atoms: _358  and  _359
REMARK  142  A    between atoms: _362  and  _364
REMARK  143  A    between atoms: _364  and  _365
REMARK  144  A    between atoms: _367  and  _369
REMARK  145  A    between atoms: _369  and  _370
REMARK  146  A    between atoms: _369  and  _372
REMARK  147  A    between atoms: _372  and  _373
REMARK  148  A    between atoms: _378  and  _379
REMARK  149  A    between atoms: _381  and  _383
REMARK  150  A    between atoms: _383  and  _384
REMARK  151  A    between atoms: _383  and  _386
REMARK  152  A    between atoms: _386  and  _387
REMARK  153  A    between atoms: _387  and  _388
REMARK  154  A    between atoms: _388  and  _389
REMARK  155  A    between atoms: _398  and  _400
REMARK  156  A    between atoms: _400  and  _401
REMARK  157  A    between atoms: _400  and  _403
REMARK  158  A    between atoms: _403  and  _404
REMARK  159  A    between atoms: _407  and  _409
REMARK  160  A    between atoms: _409  and  _410
REMARK  161  A    between atoms: _409  and  _412
REMARK  162  A    between atoms: _412  and  _413
REMARK  163  A    between atoms: _413  and  _414
REMARK  164  A    between atoms: _414  and  _415
REMARK  165  A    between atoms: _415  and  _416
REMARK  166  A    between atoms: _420  and  _422
REMARK  167  A    between atoms: _422  and  _423
REMARK  168  A    between atoms: _425  and  _427
REMARK  169  A    between atoms: _427  and  _428
REMARK  170  A    between atoms: _431  and  _433
REMARK  171  A    between atoms: _433  and  _434
REMARK  172  A    between atoms: _433  and  _436
REMARK  173  A    between atoms: _436  and  _437
REMARK  174  A    between atoms: _442  and  _444
REMARK  175  A    between atoms: _444  and  _445
REMARK  176  A    between atoms: _448  and  _450
REMARK  177  A    between atoms: _450  and  _451
REMARK  178  A    between atoms: _454  and  _455
REMARK  179  A    between atoms: _460  and  _462
REMARK  180  A    between atoms: _462  and  _463
REMARK  181  A    between atoms: _462  and  _465
REMARK  182  A    between atoms: _465  and  _466
REMARK  183  A    between atoms: _469  and  _471
REMARK  184  A    between atoms: _471  and  _472
REMARK  185  A    between atoms: _471  and  _474
REMARK  186  A    between atoms: _474  and  _475
REMARK  187  A    between atoms: _485  and  _487
REMARK  188  A    between atoms: _487  and  _488
REMARK  189  A    between atoms: _487  and  _490
REMARK  190  A    between atoms: _490  and  _491
REMARK  191  A    between atoms: _497  and  _498
REMARK  192  A    between atoms: _503  and  _505
REMARK  193  A    between atoms: _505  and  _506
REMARK  194  A    between atoms: _505  and  _508
REMARK  195  A    between atoms: _508  and  _509
REMARK  196  A    between atoms: _514  and  _516
REMARK  197  A    between atoms: _516  and  _517
REMARK  198  A    between atoms: _516  and  _519
REMARK  199  A    between atoms: _522  and  _524
REMARK  200  A    between atoms: _524  and  _525
REMARK  201  A    between atoms: _524  and  _527
REMARK  202  A    between atoms: _527  and  _528
REMARK  203  A    between atoms: _528  and  _529
REMARK  204  A    between atoms: _535  and  _536
REMARK  205  A    between atoms: _541  and  _543
REMARK  206  A    between atoms: _543  and  _544
REMARK  207  A    between atoms: _543  and  _546
REMARK  208  A    between atoms: _546  and  _547
REMARK  209  A    between atoms: _550  and  _552
REMARK  210  A    between atoms: _552  and  _553
REMARK  211  A    between atoms: _552  and  _555
REMARK  212  A    between atoms: _555  and  _556
REMARK  213  A    between atoms: _558  and  _560
REMARK  214  A    between atoms: _560  and  _561
REMARK  215  A    between atoms: _560  and  _563
REMARK  216  A    between atoms: _563  and  _564
REMARK  217  A    between atoms: _569  and  _570
REMARK  218  A    between atoms: _572  and  _574
REMARK  219  A    between atoms: _574  and  _575
REMARK  220  A    between atoms: _574  and  _577
REMARK  221  A    between atoms: _577  and  _578
REMARK  222  A    between atoms: _588  and  _590
REMARK  223  A    between atoms: _590  and  _591
REMARK  224  A    between atoms: _593  and  _595
REMARK  225  A    between atoms: _595  and  _596
REMARK  226  A    between atoms: _599  and  _601
REMARK  227  A    between atoms: _601  and  _602
REMARK  228  A    between atoms: _601  and  _604
REMARK  229  A    between atoms: _604  and  _605
REMARK  230  A    between atoms: _610  and  _612
REMARK  231  A    between atoms: _612  and  _613
REMARK  232  A    between atoms: _616  and  _618
REMARK  233  A    between atoms: _618  and  _619
REMARK  234  A    between atoms: _622  and  _623
REMARK  235  A    between atoms: _628  and  _630
REMARK  236  A    between atoms: _630  and  _631
REMARK  237  A    between atoms: _630  and  _633
REMARK  238  A    between atoms: _633  and  _634
REMARK  239  A    between atoms: _637  and  _639
REMARK  240  A    between atoms: _639  and  _640
REMARK  241  A    between atoms: _639  and  _642
REMARK  242  A    between atoms: _642  and  _643
REMARK  243  A    between atoms: _653  and  _655
REMARK  244  A    between atoms: _655  and  _656
REMARK  245  A    between atoms: _655  and  _658
REMARK  246  A    between atoms: _658  and  _659
REMARK  247  A    between atoms: _664  and  _666
REMARK  248  A    between atoms: _666  and  _667
REMARK  249  A    between atoms: _666  and  _669
REMARK  250  A    between atoms: _669  and  _670
REMARK  251  A    between atoms: _673  and  _675
REMARK  252  A    between atoms: _675  and  _676
REMARK  253  A    between atoms: _675  and  _678
REMARK  254  A    between atoms: _678  and  _679
REMARK  255  A    between atoms: _679  and  _680
REMARK  256  A    between atoms: _683  and  _685
REMARK  257  A    between atoms: _685  and  _686
REMARK  258  A    between atoms: _685  and  _688
REMARK  259  A    between atoms: _688  and  _689
REMARK  260  A    between atoms: _689  and  _690
REMARK  261  A    between atoms: _690  and  _691
REMARK  262  A    between atoms: _691  and  _692
REMARK  263  A    between atoms: _696  and  _698
REMARK  264  A    between atoms: _698  and  _699
REMARK  265  A    between atoms: _698  and  _701
REMARK  266  A    between atoms: _701  and  _702
REMARK  267  A    between atoms: _707  and  _709
REMARK  268  A    between atoms: _709  and  _710
REMARK  269  A    between atoms: _709  and  _712
REMARK  270  A    between atoms: _712  and  _713
REMARK  271  A    between atoms: _713  and  _714
REMARK  272  A    between atoms: _714  and  _715
REMARK  273  A    between atoms: _724  and  _726
REMARK  274  A    between atoms: _726  and  _727
REMARK  275  A    between atoms: _726  and  _729
REMARK  276  A    between atoms: _729  and  _730
REMARK  277  A    between atoms: _733  and  _735
REMARK  278  A    between atoms: _735  and  _736
REMARK  279  A    between atoms: _735  and  _738
REMARK  280  A    between atoms: _741  and  _743
REMARK  281  A    between atoms: _743  and  _744
REMARK  282  A    between atoms: _743  and  _746
REMARK  283  A    between atoms: _746  and  _747
REMARK  284  A    between atoms: _747  and  _748
REMARK  285  A    between atoms: _754  and  _755
REMARK  286  A    between atoms: _760  and  _762
REMARK  287  A    between atoms: _762  and  _763
REMARK  288  A    between atoms: _762  and  _765
REMARK  289  A    between atoms: _765  and  _766
REMARK  290  A    between atoms: _769  and  _771
REMARK  291  A    between atoms: _771  and  _772
REMARK  292  A    between atoms: _771  and  _774
REMARK  293  A    between atoms: _774  and  _775
REMARK  294  A    between atoms: _775  and  _776
REMARK  295  A    between atoms: _776  and  _777
REMARK  296  A    between atoms: _786  and  _788
REMARK  297  A    between atoms: _788  and  _789
REMARK                            x       y       z     vdW  Elec       q    Type
REMARK                         _______ _______ _______ _____ _____    ______ ____
ROOT
ATOM      1  O   HOH     1      22.778  20.269 -20.650  0.00  0.00    +0.000 OA
ENDROOT
TORSDOF 0
REMARK  Name = ../refined-set-2016/3o4k/3o4k_pocket.pdb
REMARK  297 active torsions:
REMARK  status: ('A' for Active; 'I' for Inactive)
REMARK    1  A    between atoms: _1  and  _3
REMARK    2  A    between atoms: _3  and  _4
REMARK    3  A    between atoms: _3  and  _6
REMARK    4  A    between atoms: _6  and  _7
REMARK    5  A    between atoms: _7  and  _8
REMARK    6  A    between atoms: _8  and  _9
REMARK    7  A    between atoms: _18  and  _20
REMARK    8  A    between atoms: _20  and  _21
REMARK    9  A    between atoms: _20  and  _23
REMARK   10  A    between atoms: _23  and  _24
REMARK   11  A    between atoms: _29  and  _30
REMARK   12  A    between atoms: _32  and  _34
REMARK   13  A    between atoms: _34  and  _35
REMARK   14  A    between atoms: _34  and  _37
REMARK   15  A    between atoms: _37  and  _38
REMARK   16  A    between atoms: _48  and  _50
REMARK   17  A    between atoms: _50  and  _51
REMARK   18  A    between atoms: _50  and  _53
REMARK   19  A    between atoms: _53  and  _54
REMARK   20  A    between atoms: _54  and  _55
REMARK   21  A    between atoms: _55  and  _56
REMARK   22  A    between atoms: _65  and  _67
REMARK   23  A    between atoms: _67  and  _68
REMARK   24  A    between atoms: _67  and  _70
REMARK   25  A    between atoms: _70  and  _71
REMARK   26  A    between atoms: _73  and  _75
REMARK   27  A    between atoms: _75  and  _76
REMARK   28  A    between atoms: _75  and  _78
REMARK   29  A    between atoms: _78  and  _79
REMARK   30  A    between atoms: _84  and  _86
REMARK   31  A    between atoms: _86  and  _87
REMARK   32  A    between atoms: _86  and  _89
REMARK   33  A    between atoms: _89  and  _90
REMARK   34  A    between atoms: _95  and  _96
REMARK   35  A    between atoms: _98  and  _100
REMARK   36  A    between atoms: _100  and  _101
REMARK   37  A    between atoms: _100  and  _103
REMARK   38  A    between atoms: _103  and  _104
REMARK   39  A    between atoms: _104  and  _105
REMARK   40  A    between atoms: _108  and  _110
REMARK   41  A    between atoms: _110  and  _111
REMARK   42  A    between atoms: _110  and  _113
REMARK   43  A    between atoms: _116  and  _118
REMARK   44  A    between atoms: _118  and  _119
REMARK   45  A    between atoms: _118  and  _121
REMARK   46  A    between atoms: _121  and  _122
REMARK   47  A    between atoms: _122  and  _123
REMARK   48  A    between atoms: _123  and  _124
REMARK   49  A    between atoms: _124  and  _125
REMARK   50  A    between atoms: _129  and  _131
REMARK   51  A    between atoms: _131  and  _132
REMARK   52  A    between atoms: _131  and  _134
REMARK   53  A    between atoms: _134  and  _135
REMARK   54  A    between atoms: _140  and  _142
REMARK   55  A    between atoms: _142  and  _143
REMARK   56  A    between atoms: _142  and  _145
REMARK   57  A    between atoms: _145  and  _146
REMARK   58  A    between atoms: _151  and  _152
REMARK   59  A    between atoms: _154  and  _156
REMARK   60  A    between atoms: _156  and  _157
REMARK   61  A    between atoms: _156  and  _159
REMARK   62  A    between atoms: _159  and  _160
REMARK   63  A    between atoms: _160  and  _161
REMARK   64  A    between atoms: _161  and  _162
REMARK   65  A    between atoms: _171  and  _173
REMARK   66  A    between atoms: _173  and  _174
REMARK   67  A    between atoms: _178  and  _180
REMARK   68  A    between atoms: _180  and  _181
REMARK   69  A    between atoms: _180  and  _183
REMARK   70  A    between atoms: _183  and  _184
REMARK   71  A    between atoms: _186  and  _188
REMARK   72  A    between atoms: _188  and  _189
REMARK   73  A    between atoms: _188  and  _191
REMARK   74  A    between atoms: _191  and  _192
REMARK   75  A    between atoms: _192  and  _193
REMARK   76  A    between atoms: _196  and  _198
REMARK   77  A    between atoms: _198  and  _199
REMARK   78  A    between atoms: _198  and  _201
REMARK   79  A    between atoms: _201  and  _202
REMARK   80  A    between atoms: _202  and  _352
REMARK   81  A    between atoms: _203  and  _205
REMARK   82  A    between atoms: _205  and  _206
REMARK   83  A    between atoms: _205  and  _208
REMARK   84  A    between atoms: _208  and  _209
REMARK   85  A    between atoms: _209  and  _210
REMARK   86  A    between atoms: _210  and  _211
REMARK   87  A    between atoms: _220  and  _222
REMARK   88  A    between atoms: _222  and  _223
REMARK   89  A    between atoms: _222  and  _225
REMARK   90  A    between atoms: _225  and  _226
REMARK   91  A    between atoms: _226  and  _227
REMARK   92  A    between atoms: _230  and  _232
REMARK   93  A    between atoms: _232  and  _233
REMARK   94  A    between atoms: _232  and  _235
REMARK   95  A    between atoms: _235  and  _236
REMARK   96  A    between atoms: _236  and  _237
REMARK   97  A    between atoms: _237  and  _238
REMARK   98  A    between atoms: _247  and  _249
REMARK   99  A    between atoms: _249  and  _250
REMARK  100  A    between atoms: _249  and  _252
REMARK  101  A    between atoms: _252  and  _253
REMARK  102  A    between atoms: _255  and  _257
REMARK  103  A    between atoms: _257  and  _258
REMARK  104  A    between atoms: _257  and  _260
REMARK  105  A    between atoms: _260  and  _261
REMARK  106  A    between atoms: _266  and  _267
REMARK  107  A    between atoms: _269  and  _271
REMARK  108  A    between atoms: _271  and  _272
REMARK  109  A    between atoms: _271  and  _274
REMARK  110  A    between atoms: _274  and  _275
REMARK  111  A    between atoms: _280  and  _282
REMARK  112  A    between atoms: _282  and  _283
REMARK  113  A    between atoms: _282  and  _285
REMARK  114  A    between atoms: _288  and  _290
REMARK  115  A    between atoms: _290  and  _291
REMARK  116  A    between atoms: _290  and  _293
REMARK  117  A    between atoms: _293  and  _294
REMARK  118  A    between atoms: _294  and  _295
REMARK  119  A    between atoms: _295  and  _296
REMARK  120  A    between atoms: _305  and  _307
REMARK  121  A    between atoms: _307  and  _308
REMARK  122  A    between atoms: _307  and  _310
REMARK  123  A    between atoms: _310  and  _311
REMARK  124  A    between atoms: _316  and  _318
REMARK  125  A    between atoms: _318  and  _319
REMARK  126  A    between atoms: _318  and  _321
REMARK  127  A    between atoms: _321  and  _322
REMARK  128  A    between atoms: _325  and  _327
REMARK  129  A    between atoms: _327  and  _328
REMARK  130  A    between atoms: _330  and  _332
REMARK  131  A    between atoms: _332  and  _333
REMARK  132  A    between atoms: _332  and  _335
REMARK  133  A    between atoms: _335  and  _336
REMARK  134  A    between atoms: _346  and  _348
REMARK  135  A    between atoms: _348  and  _349
REMARK  136  A    between atoms: _348  and  _351
REMARK  137  A    between atoms: _351  and  _352
REMARK  138  A    between atoms: _353  and  _355
REMARK  139  A    between atoms: _355  and  _356
REMARK  140  A    between atoms: _355  and  _358
REMARK  141  A    between atoms: _358  and  _359
REMARK  142  A    between atoms: _362  and  _364
REMARK  143  A    between atoms: _364  and  _365
REMARK  144  A    between atoms: _367  and  _369
REMARK  145  A    between atoms: _369  and  _370
REMARK  146  A    between atoms: _369  and  _372
REMARK  147  A    between atoms: _372  and  _373
REMARK  148  A    between atoms: _378  and  _379
REMARK  149  A    between atoms: _381  and  _383
REMARK  150  A    between atoms: _383  and  _384
REMARK  151  A    between atoms: _383  and  _386
REMARK  152  A    between atoms: _386  and  _387
REMARK  153  A    between atoms: _387  and  _388
REMARK  154  A    between atoms: _388  and  _389
REMARK  155  A    between atoms: _398  and  _400
REMARK  156  A    between atoms: _400  and  _401
REMARK  157  A    between atoms: _400  and  _403
REMARK  158  A    between atoms: _403  and  _404
REMARK  159  A    between atoms: _407  and  _409
REMARK  160  A    between atoms: _409  and  _410
REMARK  161  A    between atoms: _409  and  _412
REMARK  162  A    between atoms: _412  and  _413
REMARK  163  A    between atoms: _413  and  _414
REMARK  164  A    between atoms: _414  and  _415
REMARK  165  A    between atoms: _415  and  _416
REMARK  166  A    between atoms: _420  and  _422
REMARK  167  A    between atoms: _422  and  _423
REMARK  168  A    between atoms: _425  and  _427
REMARK  169  A    between atoms: _427  and  _428
REMARK  170  A    between atoms: _431  and  _433
REMARK  171  A    between atoms: _433  and  _434
REMARK  172  A    between atoms: _433  and  _436
REMARK  173  A    between atoms: _436  and  _437
REMARK  174  A    between atoms: _442  and  _444
REMARK  175  A    between atoms: _444  and  _445
REMARK  176  A    between atoms: _448  and  _450
REMARK  177  A    between atoms: _450  and  _451
REMARK  178  A    between atoms: _454  and  _455
REMARK  179  A    between atoms: _460  and  _462
REMARK  180  A    between atoms: _462  and  _463
REMARK  181  A    between atoms: _462  and  _465
REMARK  182  A    between atoms: _465  and  _466
REMARK  183  A    between atoms: _469  and  _471
REMARK  184  A    between atoms: _471  and  _472
REMARK  185  A    between atoms: _471  and  _474
REMARK  186  A    between atoms: _474  and  _475
REMARK  187  A    between atoms: _485  and  _487
REMARK  188  A    between atoms: _487  and  _488
REMARK  189  A    between atoms: _487  and  _490
REMARK  190  A    between atoms: _490  and  _491
REMARK  191  A    between atoms: _497  and  _498
REMARK  192  A    between atoms: _503  and  _505
REMARK  193  A    between atoms: _505  and  _506
REMARK  194  A    between atoms: _505  and  _508
REMARK  195  A    between atoms: _508  and  _509
REMARK  196  A    between atoms: _514  and  _516
REMARK  197  A    between atoms: _516  and  _517
REMARK  198  A    between atoms: _516  and  _519
REMARK  199  A    between atoms: _522  and  _524
REMARK  200  A    between atoms: _524  and  _525
REMARK  201  A    between atoms: _524  and  _527
REMARK  202  A    between atoms: _527  and  _528
REMARK  203  A    between atoms: _528  and  _529
REMARK  204  A    between atoms: _535  and  _536
REMARK  205  A    between atoms: _541  and  _543
REMARK  206  A    between atoms: _543  and  _544
REMARK  207  A    between atoms: _543  and  _546
REMARK  208  A    between atoms: _546  and  _547
REMARK  209  A    between atoms: _550  and  _552
REMARK  210  A    between atoms: _552  and  _553
REMARK  211  A    between atoms: _552  and  _555
REMARK  212  A    between atoms: _555  and  _556
REMARK  213  A    between atoms: _558  and  _560
REMARK  214  A    between atoms: _560  and  _561
REMARK  215  A    between atoms: _560  and  _563
REMARK  216  A    between atoms: _563  and  _564
REMARK  217  A    between atoms: _569  and  _570
REMARK  218  A    between atoms: _572  and  _574
REMARK  219  A    between atoms: _574  and  _575
REMARK  220  A    between atoms: _574  and  _577
REMARK  221  A    between atoms: _577  and  _578
REMARK  222  A    between atoms: _588  and  _590
REMARK  223  A    between atoms: _590  and  _591
REMARK  224  A    between atoms: _593  and  _595
REMARK  225  A    between atoms: _595  and  _596
REMARK  226  A    between atoms: _599  and  _601
REMARK  227  A    between atoms: _601  and  _602
REMARK  228  A    between atoms: _601  and  _604
REMARK  229  A    between atoms: _604  and  _605
REMARK  230  A    between atoms: _610  and  _612
REMARK  231  A    between atoms: _612  and  _613
REMARK  232  A    between atoms: _616  and  _618
REMARK  233  A    between atoms: _618  and  _619
REMARK  234  A    between atoms: _622  and  _623
REMARK  235  A    between atoms: _628  and  _630
REMARK  236  A    between atoms: _630  and  _631
REMARK  237  A    between atoms: _630  and  _633
REMARK  238  A    between atoms: _633  and  _634
REMARK  239  A    between atoms: _637  and  _639
REMARK  240  A    between atoms: _639  and  _640
REMARK  241  A    between atoms: _639  and  _642
REMARK  242  A    between atoms: _642  and  _643
REMARK  243  A    between atoms: _653  and  _655
REMARK  244  A    between atoms: _655  and  _656
REMARK  245  A    between atoms: _655  and  _658
REMARK  246  A    between atoms: _658  and  _659
REMARK  247  A    between atoms: _664  and  _666
REMARK  248  A    between atoms: _666  and  _667
REMARK  249  A    between atoms: _666  and  _669
REMARK  250  A    between atoms: _669  and  _670
REMARK  251  A    between atoms: _673  and  _675
REMARK  252  A    between atoms: _675  and  _676
REMARK  253  A    between atoms: _675  and  _678
REMARK  254  A    between atoms: _678  and  _679
REMARK  255  A    between atoms: _679  and  _680
REMARK  256  A    between atoms: _683  and  _685
REMARK  257  A    between atoms: _685  and  _686
REMARK  258  A    between atoms: _685  and  _688
REMARK  259  A    between atoms: _688  and  _689
REMARK  260  A    between atoms: _689  and  _690
REMARK  261  A    between atoms: _690  and  _691
REMARK  262  A    between atoms: _691  and  _692
REMARK  263  A    between atoms: _696  and  _698
REMARK  264  A    between atoms: _698  and  _699
REMARK  265  A    between atoms: _698  and  _701
REMARK  266  A    between atoms: _701  and  _702
REMARK  267  A    between atoms: _707  and  _709
REMARK  268  A    between atoms: _709  and  _710
REMARK  269  A    between atoms: _709  and  _712
REMARK  270  A    between atoms: _712  and  _713
REMARK  271  A    between atoms: _713  and  _714
REMARK  272  A    between atoms: _714  and  _715
REMARK  273  A    between atoms: _724  and  _726
REMARK  274  A    between atoms: _726  and  _727
REMARK  275  A    between atoms: _726  and  _729
REMARK  276  A    between atoms: _729  and  _730
REMARK  277  A    between atoms: _733  and  _735
REMARK  278  A    between atoms: _735  and  _736
REMARK  279  A    between atoms: _735  and  _738
REMARK  280  A    between atoms: _741  and  _743
REMARK  281  A    between atoms: _743  and  _744
REMARK  282  A    between atoms: _743  and  _746
REMARK  283  A    between atoms: _746  and  _747
REMARK  284  A    between atoms: _747  and  _748
REMARK  285  A    between atoms: _754  and  _755
REMARK  286  A    between atoms: _760  and  _762
REMARK  287  A    between atoms: _762  and  _763
REMARK  288  A    between atoms: _762  and  _765
REMARK  289  A    between atoms: _765  and  _766
REMARK  290  A    between atoms: _769  and  _771
REMARK  291  A    between atoms: _771  and  _772
REMARK  292  A    between atoms: _771  and  _774
REMARK  293  A    between atoms: _774  and  _775
REMARK  294  A    between atoms: _775  and  _776
REMARK  295  A    between atoms: _776  and  _777
REMARK  296  A    between atoms: _786  and  _788
REMARK  297  A    between atoms: _788  and  _789
REMARK                            x       y       z     vdW  Elec       q    Type
REMARK                         _______ _______ _______ _____ _____    ______ ____
ROOT
ATOM      1  O   HOH     1       8.789  16.981 -13.095  0.00  0.00    +0.000 OA
ENDROOT
TORSDOF 0
REMARK  Name = ../refined-set-2016/3o4k/3o4k_pocket.pdb
REMARK  297 active torsions:
REMARK  status: ('A' for Active; 'I' for Inactive)
REMARK    1  A    between atoms: _1  and  _3
REMARK    2  A    between atoms: _3  and  _4
REMARK    3  A    between atoms: _3  and  _6
REMARK    4  A    between atoms: _6  and  _7
REMARK    5  A    between atoms: _7  and  _8
REMARK    6  A    between atoms: _8  and  _9
REMARK    7  A    between atoms: _18  and  _20
REMARK    8  A    between atoms: _20  and  _21
REMARK    9  A    between atoms: _20  and  _23
REMARK   10  A    between atoms: _23  and  _24
REMARK   11  A    between atoms: _29  and  _30
REMARK   12  A    between atoms: _32  and  _34
REMARK   13  A    between atoms: _34  and  _35
REMARK   14  A    between atoms: _34  and  _37
REMARK   15  A    between atoms: _37  and  _38
REMARK   16  A    between atoms: _48  and  _50
REMARK   17  A    between atoms: _50  and  _51
REMARK   18  A    between atoms: _50  and  _53
REMARK   19  A    between atoms: _53  and  _54
REMARK   20  A    between atoms: _54  and  _55
REMARK   21  A    between atoms: _55  and  _56
REMARK   22  A    between atoms: _65  and  _67
REMARK   23  A    between atoms: _67  and  _68
REMARK   24  A    between atoms: _67  and  _70
REMARK   25  A    between atoms: _70  and  _71
REMARK   26  A    between atoms: _73  and  _75
REMARK   27  A    between atoms: _75  and  _76
REMARK   28  A    between atoms: _75  and  _78
REMARK   29  A    between atoms: _78  and  _79
REMARK   30  A    between atoms: _84  and  _86
REMARK   31  A    between atoms: _86  and  _87
REMARK   32  A    between atoms: _86  and  _89
REMARK   33  A    between atoms: _89  and  _90
REMARK   34  A    between atoms: _95  and  _96
REMARK   35  A    between atoms: _98  and  _100
REMARK   36  A    between atoms: _100  and  _101
REMARK   37  A    between atoms: _100  and  _103
REMARK   38  A    between atoms: _103  and  _104
REMARK   39  A    between atoms: _104  and  _105
REMARK   40  A    between atoms: _108  and  _110
REMARK   41  A    between atoms: _110  and  _111
REMARK   42  A    between atoms: _110  and  _113
REMARK   43  A    between atoms: _116  and  _118
REMARK   44  A    between atoms: _118  and  _119
REMARK   45  A    between atoms: _118  and  _121
REMARK   46  A    between atoms: _121  and  _122
REMARK   47  A    between atoms: _122  and  _123
REMARK   48  A    between atoms: _123  and  _124
REMARK   49  A    between atoms: _124  and  _125
REMARK   50  A    between atoms: _129  and  _131
REMARK   51  A    between atoms: _131  and  _132
REMARK   52  A    between atoms: _131  and  _134
REMARK   53  A    between atoms: _134  and  _135
REMARK   54  A    between atoms: _140  and  _142
REMARK   55  A    between atoms: _142  and  _143
REMARK   56  A    between atoms: _142  and  _145
REMARK   57  A    between atoms: _145  and  _146
REMARK   58  A    between atoms: _151  and  _152
REMARK   59  A    between atoms: _154  and  _156
REMARK   60  A    between atoms: _156  and  _157
REMARK   61  A    between atoms: _156  and  _159
REMARK   62  A    between atoms: _159  and  _160
REMARK   63  A    between atoms: _160  and  _161
REMARK   64  A    between atoms: _161  and  _162
REMARK   65  A    between atoms: _171  and  _173
REMARK   66  A    between atoms: _173  and  _174
REMARK   67  A    between atoms: _178  and  _180
REMARK   68  A    between atoms: _180  and  _181
REMARK   69  A    between atoms: _180  and  _183
REMARK   70  A    between atoms: _183  and  _184
REMARK   71  A    between atoms: _186  and  _188
REMARK   72  A    between atoms: _188  and  _189
REMARK   73  A    between atoms: _188  and  _191
REMARK   74  A    between atoms: _191  and  _192
REMARK   75  A    between atoms: _192  and  _193
REMARK   76  A    between atoms: _196  and  _198
REMARK   77  A    between atoms: _198  and  _199
REMARK   78  A    between atoms: _198  and  _201
REMARK   79  A    between atoms: _201  and  _202
REMARK   80  A    between atoms: _202  and  _352
REMARK   81  A    between atoms: _203  and  _205
REMARK   82  A    between atoms: _205  and  _206
REMARK   83  A    between atoms: _205  and  _208
REMARK   84  A    between atoms: _208  and  _209
REMARK   85  A    between atoms: _209  and  _210
REMARK   86  A    between atoms: _210  and  _211
REMARK   87  A    between atoms: _220  and  _222
REMARK   88  A    between atoms: _222  and  _223
REMARK   89  A    between atoms: _222  and  _225
REMARK   90  A    between atoms: _225  and  _226
REMARK   91  A    between atoms: _226  and  _227
REMARK   92  A    between atoms: _230  and  _232
REMARK   93  A    between atoms: _232  and  _233
REMARK   94  A    between atoms: _232  and  _235
REMARK   95  A    between atoms: _235  and  _236
REMARK   96  A    between atoms: _236  and  _237
REMARK   97  A    between atoms: _237  and  _238
REMARK   98  A    between atoms: _247  and  _249
REMARK   99  A    between atoms: _249  and  _250
REMARK  100  A    between atoms: _249  and  _252
REMARK  101  A    between atoms: _252  and  _253
REMARK  102  A    between atoms: _255  and  _257
REMARK  103  A    between atoms: _257  and  _258
REMARK  104  A    between atoms: _257  and  _260
REMARK  105  A    between atoms: _260  and  _261
REMARK  106  A    between atoms: _266  and  _267
REMARK  107  A    between atoms: _269  and  _271
REMARK  108  A    between atoms: _271  and  _272
REMARK  109  A    between atoms: _271  and  _274
REMARK  110  A    between atoms: _274  and  _275
REMARK  111  A    between atoms: _280  and  _282
REMARK  112  A    between atoms: _282  and  _283
REMARK  113  A    between atoms: _282  and  _285
REMARK  114  A    between atoms: _288  and  _290
REMARK  115  A    between atoms: _290  and  _291
REMARK  116  A    between atoms: _290  and  _293
REMARK  117  A    between atoms: _293  and  _294
REMARK  118  A    between atoms: _294  and  _295
REMARK  119  A    between atoms: _295  and  _296
REMARK  120  A    between atoms: _305  and  _307
REMARK  121  A    between atoms: _307  and  _308
REMARK  122  A    between atoms: _307  and  _310
REMARK  123  A    between atoms: _310  and  _311
REMARK  124  A    between atoms: _316  and  _318
REMARK  125  A    between atoms: _318  and  _319
REMARK  126  A    between atoms: _318  and  _321
REMARK  127  A    between atoms: _321  and  _322
REMARK  128  A    between atoms: _325  and  _327
REMARK  129  A    between atoms: _327  and  _328
REMARK  130  A    between atoms: _330  and  _332
REMARK  131  A    between atoms: _332  and  _333
REMARK  132  A    between atoms: _332  and  _335
REMARK  133  A    between atoms: _335  and  _336
REMARK  134  A    between atoms: _346  and  _348
REMARK  135  A    between atoms: _348  and  _349
REMARK  136  A    between atoms: _348  and  _351
REMARK  137  A    between atoms: _351  and  _352
REMARK  138  A    between atoms: _353  and  _355
REMARK  139  A    between atoms: _355  and  _356
REMARK  140  A    between atoms: _355  and  _358
REMARK  141  A    between atoms: _358  and  _359
REMARK  142  A    between atoms: _362  and  _364
REMARK  143  A    between atoms: _364  and  _365
REMARK  144  A    between atoms: _367  and  _369
REMARK  145  A    between atoms: _369  and  _370
REMARK  146  A    between atoms: _369  and  _372
REMARK  147  A    between atoms: _372  and  _373
REMARK  148  A    between atoms: _378  and  _379
REMARK  149  A    between atoms: _381  and  _383
REMARK  150  A    between atoms: _383  and  _384
REMARK  151  A    between atoms: _383  and  _386
REMARK  152  A    between atoms: _386  and  _387
REMARK  153  A    between atoms: _387  and  _388
REMARK  154  A    between atoms: _388  and  _389
REMARK  155  A    between atoms: _398  and  _400
REMARK  156  A    between atoms: _400  and  _401
REMARK  157  A    between atoms: _400  and  _403
REMARK  158  A    between atoms: _403  and  _404
REMARK  159  A    between atoms: _407  and  _409
REMARK  160  A    between atoms: _409  and  _410
REMARK  161  A    between atoms: _409  and  _412
REMARK  162  A    between atoms: _412  and  _413
REMARK  163  A    between atoms: _413  and  _414
REMARK  164  A    between atoms: _414  and  _415
REMARK  165  A    between atoms: _415  and  _416
REMARK  166  A    between atoms: _420  and  _422
REMARK  167  A    between atoms: _422  and  _423
REMARK  168  A    between atoms: _425  and  _427
REMARK  169  A    between atoms: _427  and  _428
REMARK  170  A    between atoms: _431  and  _433
REMARK  171  A    between atoms: _433  and  _434
REMARK  172  A    between atoms: _433  and  _436
REMARK  173  A    between atoms: _436  and  _437
REMARK  174  A    between atoms: _442  and  _444
REMARK  175  A    between atoms: _444  and  _445
REMARK  176  A    between atoms: _448  and  _450
REMARK  177  A    between atoms: _450  and  _451
REMARK  178  A    between atoms: _454  and  _455
REMARK  179  A    between atoms: _460  and  _462
REMARK  180  A    between atoms: _462  and  _463
REMARK  181  A    between atoms: _462  and  _465
REMARK  182  A    between atoms: _465  and  _466
REMARK  183  A    between atoms: _469  and  _471
REMARK  184  A    between atoms: _471  and  _472
REMARK  185  A    between atoms: _471  and  _474
REMARK  186  A    between atoms: _474  and  _475
REMARK  187  A    between atoms: _485  and  _487
REMARK  188  A    between atoms: _487  and  _488
REMARK  189  A    between atoms: _487  and  _490
REMARK  190  A    between atoms: _490  and  _491
REMARK  191  A    between atoms: _497  and  _498
REMARK  192  A    between atoms: _503  and  _505
REMARK  193  A    between atoms: _505  and  _506
REMARK  194  A    between atoms: _505  and  _508
REMARK  195  A    between atoms: _508  and  _509
REMARK  196  A    between atoms: _514  and  _516
REMARK  197  A    between atoms: _516  and  _517
REMARK  198  A    between atoms: _516  and  _519
REMARK  199  A    between atoms: _522  and  _524
REMARK  200  A    between atoms: _524  and  _525
REMARK  201  A    between atoms: _524  and  _527
REMARK  202  A    between atoms: _527  and  _528
REMARK  203  A    between atoms: _528  and  _529
REMARK  204  A    between atoms: _535  and  _536
REMARK  205  A    between atoms: _541  and  _543
REMARK  206  A    between atoms: _543  and  _544
REMARK  207  A    between atoms: _543  and  _546
REMARK  208  A    between atoms: _546  and  _547
REMARK  209  A    between atoms: _550  and  _552
REMARK  210  A    between atoms: _552  and  _553
REMARK  211  A    between atoms: _552  and  _555
REMARK  212  A    between atoms: _555  and  _556
REMARK  213  A    between atoms: _558  and  _560
REMARK  214  A    between atoms: _560  and  _561
REMARK  215  A    between atoms: _560  and  _563
REMARK  216  A    between atoms: _563  and  _564
REMARK  217  A    between atoms: _569  and  _570
REMARK  218  A    between atoms: _572  and  _574
REMARK  219  A    between atoms: _574  and  _575
REMARK  220  A    between atoms: _574  and  _577
REMARK  221  A    between atoms: _577  and  _578
REMARK  222  A    between atoms: _588  and  _590
REMARK  223  A    between atoms: _590  and  _591
REMARK  224  A    between atoms: _593  and  _595
REMARK  225  A    between atoms: _595  and  _596
REMARK  226  A    between atoms: _599  and  _601
REMARK  227  A    between atoms: _601  and  _602
REMARK  228  A    between atoms: _601  and  _604
REMARK  229  A    between atoms: _604  and  _605
REMARK  230  A    between atoms: _610  and  _612
REMARK  231  A    between atoms: _612  and  _613
REMARK  232  A    between atoms: _616  and  _618
REMARK  233  A    between atoms: _618  and  _619
REMARK  234  A    between atoms: _622  and  _623
REMARK  235  A    between atoms: _628  and  _630
REMARK  236  A    between atoms: _630  and  _631
REMARK  237  A    between atoms: _630  and  _633
REMARK  238  A    between atoms: _633  and  _634
REMARK  239  A    between atoms: _637  and  _639
REMARK  240  A    between atoms: _639  and  _640
REMARK  241  A    between atoms: _639  and  _642
REMARK  242  A    between atoms: _642  and  _643
REMARK  243  A    between atoms: _653  and  _655
REMARK  244  A    between atoms: _655  and  _656
REMARK  245  A    between atoms: _655  and  _658
REMARK  246  A    between atoms: _658  and  _659
REMARK  247  A    between atoms: _664  and  _666
REMARK  248  A    between atoms: _666  and  _667
REMARK  249  A    between atoms: _666  and  _669
REMARK  250  A    between atoms: _669  and  _670
REMARK  251  A    between atoms: _673  and  _675
REMARK  252  A    between atoms: _675  and  _676
REMARK  253  A    between atoms: _675  and  _678
REMARK  254  A    between atoms: _678  and  _679
REMARK  255  A    between atoms: _679  and  _680
REMARK  256  A    between atoms: _683  and  _685
REMARK  257  A    between atoms: _685  and  _686
REMARK  258  A    between atoms: _685  and  _688
REMARK  259  A    between atoms: _688  and  _689
REMARK  260  A    between atoms: _689  and  _690
REMARK  261  A    between atoms: _690  and  _691
REMARK  262  A    between atoms: _691  and  _692
REMARK  263  A    between atoms: _696  and  _698
REMARK  264  A    between atoms: _698  and  _699
REMARK  265  A    between atoms: _698  and  _701
REMARK  266  A    between atoms: _701  and  _702
REMARK  267  A    between atoms: _707  and  _709
REMARK  268  A    between atoms: _709  and  _710
REMARK  269  A    between atoms: _709  and  _712
REMARK  270  A    between atoms: _712  and  _713
REMARK  271  A    between atoms: _713  and  _714
REMARK  272  A    between atoms: _714  and  _715
REMARK  273  A    between atoms: _724  and  _726
REMARK  274  A    between atoms: _726  and  _727
REMARK  275  A    between atoms: _726  and  _729
REMARK  276  A    between atoms: _729  and  _730
REMARK  277  A    between atoms: _733  and  _735
REMARK  278  A    between atoms: _735  and  _736
REMARK  279  A    between atoms: _735  and  _738
REMARK  280  A    between atoms: _741  and  _743
REMARK  281  A    between atoms: _743  and  _744
REMARK  282  A    between atoms: _743  and  _746
REMARK  283  A    between atoms: _746  and  _747
REMARK  284  A    between atoms: _747  and  _748
REMARK  285  A    between atoms: _754  and  _755
REMARK  286  A    between atoms: _760  and  _762
REMARK  287  A    between atoms: _762  and  _763
REMARK  288  A    between atoms: _762  and  _765
REMARK  289  A    between atoms: _765  and  _766
REMARK  290  A    between atoms: _769  and  _771
REMARK  291  A    between atoms: _771  and  _772
REMARK  292  A    between atoms: _771  and  _774
REMARK  293  A    between atoms: _774  and  _775
REMARK  294  A    between atoms: _775  and  _776
REMARK  295  A    between atoms: _776  and  _777
REMARK  296  A    between atoms: _786  and  _788
REMARK  297  A    between atoms: _788  and  _789
REMARK                            x       y       z     vdW  Elec       q    Type
REMARK                         _______ _______ _______ _____ _____    ______ ____
ROOT
ATOM      1  O   HOH     1      25.833  13.989 -27.212  0.00  0.00    +0.000 OA
ENDROOT
TORSDOF 0
REMARK  Name = ../refined-set-2016/3o4k/3o4k_pocket.pdb
REMARK  297 active torsions:
REMARK  status: ('A' for Active; 'I' for Inactive)
REMARK    1  A    between atoms: _1  and  _3
REMARK    2  A    between atoms: _3  and  _4
REMARK    3  A    between atoms: _3  and  _6
REMARK    4  A    between atoms: _6  and  _7
REMARK    5  A    between atoms: _7  and  _8
REMARK    6  A    between atoms: _8  and  _9
REMARK    7  A    between atoms: _18  and  _20
REMARK    8  A    between atoms: _20  and  _21
REMARK    9  A    between atoms: _20  and  _23
REMARK   10  A    between atoms: _23  and  _24
REMARK   11  A    between atoms: _29  and  _30
REMARK   12  A    between atoms: _32  and  _34
REMARK   13  A    between atoms: _34  and  _35
REMARK   14  A    between atoms: _34  and  _37
REMARK   15  A    between atoms: _37  and  _38
REMARK   16  A    between atoms: _48  and  _50
REMARK   17  A    between atoms: _50  and  _51
REMARK   18  A    between atoms: _50  and  _53
REMARK   19  A    between atoms: _53  and  _54
REMARK   20  A    between atoms: _54  and  _55
REMARK   21  A    between atoms: _55  and  _56
REMARK   22  A    between atoms: _65  and  _67
REMARK   23  A    between atoms: _67  and  _68
REMARK   24  A    between atoms: _67  and  _70
REMARK   25  A    between atoms: _70  and  _71
REMARK   26  A    between atoms: _73  and  _75
REMARK   27  A    between atoms: _75  and  _76
REMARK   28  A    between atoms: _75  and  _78
REMARK   29  A    between atoms: _78  and  _79
REMARK   30  A    between atoms: _84  and  _86
REMARK   31  A    between atoms: _86  and  _87
REMARK   32  A    between atoms: _86  and  _89
REMARK   33  A    between atoms: _89  and  _90
REMARK   34  A    between atoms: _95  and  _96
REMARK   35  A    between atoms: _98  and  _100
REMARK   36  A    between atoms: _100  and  _101
REMARK   37  A    between atoms: _100  and  _103
REMARK   38  A    between atoms: _103  and  _104
REMARK   39  A    between atoms: _104  and  _105
REMARK   40  A    between atoms: _108  and  _110
REMARK   41  A    between atoms: _110  and  _111
REMARK   42  A    between atoms: _110  and  _113
REMARK   43  A    between atoms: _116  and  _118
REMARK   44  A    between atoms: _118  and  _119
REMARK   45  A    between atoms: _118  and  _121
REMARK   46  A    between atoms: _121  and  _122
REMARK   47  A    between atoms: _122  and  _123
REMARK   48  A    between atoms: _123  and  _124
REMARK   49  A    between atoms: _124  and  _125
REMARK   50  A    between atoms: _129  and  _131
REMARK   51  A    between atoms: _131  and  _132
REMARK   52  A    between atoms: _131  and  _134
REMARK   53  A    between atoms: _134  and  _135
REMARK   54  A    between atoms: _140  and  _142
REMARK   55  A    between atoms: _142  and  _143
REMARK   56  A    between atoms: _142  and  _145
REMARK   57  A    between atoms: _145  and  _146
REMARK   58  A    between atoms: _151  and  _152
REMARK   59  A    between atoms: _154  and  _156
REMARK   60  A    between atoms: _156  and  _157
REMARK   61  A    between atoms: _156  and  _159
REMARK   62  A    between atoms: _159  and  _160
REMARK   63  A    between atoms: _160  and  _161
REMARK   64  A    between atoms: _161  and  _162
REMARK   65  A    between atoms: _171  and  _173
REMARK   66  A    between atoms: _173  and  _174
REMARK   67  A    between atoms: _178  and  _180
REMARK   68  A    between atoms: _180  and  _181
REMARK   69  A    between atoms: _180  and  _183
REMARK   70  A    between atoms: _183  and  _184
REMARK   71  A    between atoms: _186  and  _188
REMARK   72  A    between atoms: _188  and  _189
REMARK   73  A    between atoms: _188  and  _191
REMARK   74  A    between atoms: _191  and  _192
REMARK   75  A    between atoms: _192  and  _193
REMARK   76  A    between atoms: _196  and  _198
REMARK   77  A    between atoms: _198  and  _199
REMARK   78  A    between atoms: _198  and  _201
REMARK   79  A    between atoms: _201  and  _202
REMARK   80  A    between atoms: _202  and  _352
REMARK   81  A    between atoms: _203  and  _205
REMARK   82  A    between atoms: _205  and  _206
REMARK   83  A    between atoms: _205  and  _208
REMARK   84  A    between atoms: _208  and  _209
REMARK   85  A    between atoms: _209  and  _210
REMARK   86  A    between atoms: _210  and  _211
REMARK   87  A    between atoms: _220  and  _222
REMARK   88  A    between atoms: _222  and  _223
REMARK   89  A    between atoms: _222  and  _225
REMARK   90  A    between atoms: _225  and  _226
REMARK   91  A    between atoms: _226  and  _227
REMARK   92  A    between atoms: _230  and  _232
REMARK   93  A    between atoms: _232  and  _233
REMARK   94  A    between atoms: _232  and  _235
REMARK   95  A    between atoms: _235  and  _236
REMARK   96  A    between atoms: _236  and  _237
REMARK   97  A    between atoms: _237  and  _238
REMARK   98  A    between atoms: _247  and  _249
REMARK   99  A    between atoms: _249  and  _250
REMARK  100  A    between atoms: _249  and  _252
REMARK  101  A    between atoms: _252  and  _253
REMARK  102  A    between atoms: _255  and  _257
REMARK  103  A    between atoms: _257  and  _258
REMARK  104  A    between atoms: _257  and  _260
REMARK  105  A    between atoms: _260  and  _261
REMARK  106  A    between atoms: _266  and  _267
REMARK  107  A    between atoms: _269  and  _271
REMARK  108  A    between atoms: _271  and  _272
REMARK  109  A    between atoms: _271  and  _274
REMARK  110  A    between atoms: _274  and  _275
REMARK  111  A    between atoms: _280  and  _282
REMARK  112  A    between atoms: _282  and  _283
REMARK  113  A    between atoms: _282  and  _285
REMARK  114  A    between atoms: _288  and  _290
REMARK  115  A    between atoms: _290  and  _291
REMARK  116  A    between atoms: _290  and  _293
REMARK  117  A    between atoms: _293  and  _294
REMARK  118  A    between atoms: _294  and  _295
REMARK  119  A    between atoms: _295  and  _296
REMARK  120  A    between atoms: _305  and  _307
REMARK  121  A    between atoms: _307  and  _308
REMARK  122  A    between atoms: _307  and  _310
REMARK  123  A    between atoms: _310  and  _311
REMARK  124  A    between atoms: _316  and  _318
REMARK  125  A    between atoms: _318  and  _319
REMARK  126  A    between atoms: _318  and  _321
REMARK  127  A    between atoms: _321  and  _322
REMARK  128  A    between atoms: _325  and  _327
REMARK  129  A    between atoms: _327  and  _328
REMARK  130  A    between atoms: _330  and  _332
REMARK  131  A    between atoms: _332  and  _333
REMARK  132  A    between atoms: _332  and  _335
REMARK  133  A    between atoms: _335  and  _336
REMARK  134  A    between atoms: _346  and  _348
REMARK  135  A    between atoms: _348  and  _349
REMARK  136  A    between atoms: _348  and  _351
REMARK  137  A    between atoms: _351  and  _352
REMARK  138  A    between atoms: _353  and  _355
REMARK  139  A    between atoms: _355  and  _356
REMARK  140  A    between atoms: _355  and  _358
REMARK  141  A    between atoms: _358  and  _359
REMARK  142  A    between atoms: _362  and  _364
REMARK  143  A    between atoms: _364  and  _365
REMARK  144  A    between atoms: _367  and  _369
REMARK  145  A    between atoms: _369  and  _370
REMARK  146  A    between atoms: _369  and  _372
REMARK  147  A    between atoms: _372  and  _373
REMARK  148  A    between atoms: _378  and  _379
REMARK  149  A    between atoms: _381  and  _383
REMARK  150  A    between atoms: _383  and  _384
REMARK  151  A    between atoms: _383  and  _386
REMARK  152  A    between atoms: _386  and  _387
REMARK  153  A    between atoms: _387  and  _388
REMARK  154  A    between atoms: _388  and  _389
REMARK  155  A    between atoms: _398  and  _400
REMARK  156  A    between atoms: _400  and  _401
REMARK  157  A    between atoms: _400  and  _403
REMARK  158  A    between atoms: _403  and  _404
REMARK  159  A    between atoms: _407  and  _409
REMARK  160  A    between atoms: _409  and  _410
REMARK  161  A    between atoms: _409  and  _412
REMARK  162  A    between atoms: _412  and  _413
REMARK  163  A    between atoms: _413  and  _414
REMARK  164  A    between atoms: _414  and  _415
REMARK  165  A    between atoms: _415  and  _416
REMARK  166  A    between atoms: _420  and  _422
REMARK  167  A    between atoms: _422  and  _423
REMARK  168  A    between atoms: _425  and  _427
REMARK  169  A    between atoms: _427  and  _428
REMARK  170  A    between atoms: _431  and  _433
REMARK  171  A    between atoms: _433  and  _434
REMARK  172  A    between atoms: _433  and  _436
REMARK  173  A    between atoms: _436  and  _437
REMARK  174  A    between atoms: _442  and  _444
REMARK  175  A    between atoms: _444  and  _445
REMARK  176  A    between atoms: _448  and  _450
REMARK  177  A    between atoms: _450  and  _451
REMARK  178  A    between atoms: _454  and  _455
REMARK  179  A    between atoms: _460  and  _462
REMARK  180  A    between atoms: _462  and  _463
REMARK  181  A    between atoms: _462  and  _465
REMARK  182  A    between atoms: _465  and  _466
REMARK  183  A    between atoms: _469  and  _471
REMARK  184  A    between atoms: _471  and  _472
REMARK  185  A    between atoms: _471  and  _474
REMARK  186  A    between atoms: _474  and  _475
REMARK  187  A    between atoms: _485  and  _487
REMARK  188  A    between atoms: _487  and  _488
REMARK  189  A    between atoms: _487  and  _490
REMARK  190  A    between atoms: _490  and  _491
REMARK  191  A    between atoms: _497  and  _498
REMARK  192  A    between atoms: _503  and  _505
REMARK  193  A    between atoms: _505  and  _506
REMARK  194  A    between atoms: _505  and  _508
REMARK  195  A    between atoms: _508  and  _509
REMARK  196  A    between atoms: _514  and  _516
REMARK  197  A    between atoms: _516  and  _517
REMARK  198  A    between atoms: _516  and  _519
REMARK  199  A    between atoms: _522  and  _524
REMARK  200  A    between atoms: _524  and  _525
REMARK  201  A    between atoms: _524  and  _527
REMARK  202  A    between atoms: _527  and  _528
REMARK  203  A    between atoms: _528  and  _529
REMARK  204  A    between atoms: _535  and  _536
REMARK  205  A    between atoms: _541  and  _543
REMARK  206  A    between atoms: _543  and  _544
REMARK  207  A    between atoms: _543  and  _546
REMARK  208  A    between atoms: _546  and  _547
REMARK  209  A    between atoms: _550  and  _552
REMARK  210  A    between atoms: _552  and  _553
REMARK  211  A    between atoms: _552  and  _555
REMARK  212  A    between atoms: _555  and  _556
REMARK  213  A    between atoms: _558  and  _560
REMARK  214  A    between atoms: _560  and  _561
REMARK  215  A    between atoms: _560  and  _563
REMARK  216  A    between atoms: _563  and  _564
REMARK  217  A    between atoms: _569  and  _570
REMARK  218  A    between atoms: _572  and  _574
REMARK  219  A    between atoms: _574  and  _575
REMARK  220  A    between atoms: _574  and  _577
REMARK  221  A    between atoms: _577  and  _578
REMARK  222  A    between atoms: _588  and  _590
REMARK  223  A    between atoms: _590  and  _591
REMARK  224  A    between atoms: _593  and  _595
REMARK  225  A    between atoms: _595  and  _596
REMARK  226  A    between atoms: _599  and  _601
REMARK  227  A    between atoms: _601  and  _602
REMARK  228  A    between atoms: _601  and  _604
REMARK  229  A    between atoms: _604  and  _605
REMARK  230  A    between atoms: _610  and  _612
REMARK  231  A    between atoms: _612  and  _613
REMARK  232  A    between atoms: _616  and  _618
REMARK  233  A    between atoms: _618  and  _619
REMARK  234  A    between atoms: _622  and  _623
REMARK  235  A    between atoms: _628  and  _630
REMARK  236  A    between atoms: _630  and  _631
REMARK  237  A    between atoms: _630  and  _633
REMARK  238  A    between atoms: _633  and  _634
REMARK  239  A    between atoms: _637  and  _639
REMARK  240  A    between atoms: _639  and  _640
REMARK  241  A    between atoms: _639  and  _642
REMARK  242  A    between atoms: _642  and  _643
REMARK  243  A    between atoms: _653  and  _655
REMARK  244  A    between atoms: _655  and  _656
REMARK  245  A    between atoms: _655  and  _658
REMARK  246  A    between atoms: _658  and  _659
REMARK  247  A    between atoms: _664  and  _666
REMARK  248  A    between atoms: _666  and  _667
REMARK  249  A    between atoms: _666  and  _669
REMARK  250  A    between atoms: _669  and  _670
REMARK  251  A    between atoms: _673  and  _675
REMARK  252  A    between atoms: _675  and  _676
REMARK  253  A    between atoms: _675  and  _678
REMARK  254  A    between atoms: _678  and  _679
REMARK  255  A    between atoms: _679  and  _680
REMARK  256  A    between atoms: _683  and  _685
REMARK  257  A    between atoms: _685  and  _686
REMARK  258  A    between atoms: _685  and  _688
REMARK  259  A    between atoms: _688  and  _689
REMARK  260  A    between atoms: _689  and  _690
REMARK  261  A    between atoms: _690  and  _691
REMARK  262  A    between atoms: _691  and  _692
REMARK  263  A    between atoms: _696  and  _698
REMARK  264  A    between atoms: _698  and  _699
REMARK  265  A    between atoms: _698  and  _701
REMARK  266  A    between atoms: _701  and  _702
REMARK  267  A    between atoms: _707  and  _709
REMARK  268  A    between atoms: _709  and  _710
REMARK  269  A    between atoms: _709  and  _712
REMARK  270  A    between atoms: _712  and  _713
REMARK  271  A    between atoms: _713  and  _714
REMARK  272  A    between atoms: _714  and  _715
REMARK  273  A    between atoms: _724  and  _726
REMARK  274  A    between atoms: _726  and  _727
REMARK  275  A    between atoms: _726  and  _729
REMARK  276  A    between atoms: _729  and  _730
REMARK  277  A    between atoms: _733  and  _735
REMARK  278  A    between atoms: _735  and  _736
REMARK  279  A    between atoms: _735  and  _738
REMARK  280  A    between atoms: _741  and  _743
REMARK  281  A    between atoms: _743  and  _744
REMARK  282  A    between atoms: _743  and  _746
REMARK  283  A    between atoms: _746  and  _747
REMARK  284  A    between atoms: _747  and  _748
REMARK  285  A    between atoms: _754  and  _755
REMARK  286  A    between atoms: _760  and  _762
REMARK  287  A    between atoms: _762  and  _763
REMARK  288  A    between atoms: _762  and  _765
REMARK  289  A    between atoms: _765  and  _766
REMARK  290  A    between atoms: _769  and  _771
REMARK  291  A    between atoms: _771  and  _772
REMARK  292  A    between atoms: _771  and  _774
REMARK  293  A    between atoms: _774  and  _775
REMARK  294  A    between atoms: _775  and  _776
REMARK  295  A    between atoms: _776  and  _777
REMARK  296  A    between atoms: _786  and  _788
REMARK  297  A    between atoms: _788  and  _789
REMARK                            x       y       z     vdW  Elec       q    Type
REMARK                         _______ _______ _______ _____ _____    ______ ____
ROOT
ATOM      1  O   HOH     1       9.539  12.487 -26.478  0.00  0.00    +0.000 OA
ENDROOT
TORSDOF 0
REMARK  Name = ../refined-set-2016/3o4k/3o4k_pocket.pdb
REMARK  297 active torsions:
REMARK  status: ('A' for Active; 'I' for Inactive)
REMARK    1  A    between atoms: _1  and  _3
REMARK    2  A    between atoms: _3  and  _4
REMARK    3  A    between atoms: _3  and  _6
REMARK    4  A    between atoms: _6  and  _7
REMARK    5  A    between atoms: _7  and  _8
REMARK    6  A    between atoms: _8  and  _9
REMARK    7  A    between atoms: _18  and  _20
REMARK    8  A    between atoms: _20  and  _21
REMARK    9  A    between atoms: _20  and  _23
REMARK   10  A    between atoms: _23  and  _24
REMARK   11  A    between atoms: _29  and  _30
REMARK   12  A    between atoms: _32  and  _34
REMARK   13  A    between atoms: _34  and  _35
REMARK   14  A    between atoms: _34  and  _37
REMARK   15  A    between atoms: _37  and  _38
REMARK   16  A    between atoms: _48  and  _50
REMARK   17  A    between atoms: _50  and  _51
REMARK   18  A    between atoms: _50  and  _53
REMARK   19  A    between atoms: _53  and  _54
REMARK   20  A    between atoms: _54  and  _55
REMARK   21  A    between atoms: _55  and  _56
REMARK   22  A    between atoms: _65  and  _67
REMARK   23  A    between atoms: _67  and  _68
REMARK   24  A    between atoms: _67  and  _70
REMARK   25  A    between atoms: _70  and  _71
REMARK   26  A    between atoms: _73  and  _75
REMARK   27  A    between atoms: _75  and  _76
REMARK   28  A    between atoms: _75  and  _78
REMARK   29  A    between atoms: _78  and  _79
REMARK   30  A    between atoms: _84  and  _86
REMARK   31  A    between atoms: _86  and  _87
REMARK   32  A    between atoms: _86  and  _89
REMARK   33  A    between atoms: _89  and  _90
REMARK   34  A    between atoms: _95  and  _96
REMARK   35  A    between atoms: _98  and  _100
REMARK   36  A    between atoms: _100  and  _101
REMARK   37  A    between atoms: _100  and  _103
REMARK   38  A    between atoms: _103  and  _104
REMARK   39  A    between atoms: _104  and  _105
REMARK   40  A    between atoms: _108  and  _110
REMARK   41  A    between atoms: _110  and  _111
REMARK   42  A    between atoms: _110  and  _113
REMARK   43  A    between atoms: _116  and  _118
REMARK   44  A    between atoms: _118  and  _119
REMARK   45  A    between atoms: _118  and  _121
REMARK   46  A    between atoms: _121  and  _122
REMARK   47  A    between atoms: _122  and  _123
REMARK   48  A    between atoms: _123  and  _124
REMARK   49  A    between atoms: _124  and  _125
REMARK   50  A    between atoms: _129  and  _131
REMARK   51  A    between atoms: _131  and  _132
REMARK   52  A    between atoms: _131  and  _134
REMARK   53  A    between atoms: _134  and  _135
REMARK   54  A    between atoms: _140  and  _142
REMARK   55  A    between atoms: _142  and  _143
REMARK   56  A    between atoms: _142  and  _145
REMARK   57  A    between atoms: _145  and  _146
REMARK   58  A    between atoms: _151  and  _152
REMARK   59  A    between atoms: _154  and  _156
REMARK   60  A    between atoms: _156  and  _157
REMARK   61  A    between atoms: _156  and  _159
REMARK   62  A    between atoms: _159  and  _160
REMARK   63  A    between atoms: _160  and  _161
REMARK   64  A    between atoms: _161  and  _162
REMARK   65  A    between atoms: _171  and  _173
REMARK   66  A    between atoms: _173  and  _174
REMARK   67  A    between atoms: _178  and  _180
REMARK   68  A    between atoms: _180  and  _181
REMARK   69  A    between atoms: _180  and  _183
REMARK   70  A    between atoms: _183  and  _184
REMARK   71  A    between atoms: _186  and  _188
REMARK   72  A    between atoms: _188  and  _189
REMARK   73  A    between atoms: _188  and  _191
REMARK   74  A    between atoms: _191  and  _192
REMARK   75  A    between atoms: _192  and  _193
REMARK   76  A    between atoms: _196  and  _198
REMARK   77  A    between atoms: _198  and  _199
REMARK   78  A    between atoms: _198  and  _201
REMARK   79  A    between atoms: _201  and  _202
REMARK   80  A    between atoms: _202  and  _352
REMARK   81  A    between atoms: _203  and  _205
REMARK   82  A    between atoms: _205  and  _206
REMARK   83  A    between atoms: _205  and  _208
REMARK   84  A    between atoms: _208  and  _209
REMARK   85  A    between atoms: _209  and  _210
REMARK   86  A    between atoms: _210  and  _211
REMARK   87  A    between atoms: _220  and  _222
REMARK   88  A    between atoms: _222  and  _223
REMARK   89  A    between atoms: _222  and  _225
REMARK   90  A    between atoms: _225  and  _226
REMARK   91  A    between atoms: _226  and  _227
REMARK   92  A    between atoms: _230  and  _232
REMARK   93  A    between atoms: _232  and  _233
REMARK   94  A    between atoms: _232  and  _235
REMARK   95  A    between atoms: _235  and  _236
REMARK   96  A    between atoms: _236  and  _237
REMARK   97  A    between atoms: _237  and  _238
REMARK   98  A    between atoms: _247  and  _249
REMARK   99  A    between atoms: _249  and  _250
REMARK  100  A    between atoms: _249  and  _252
REMARK  101  A    between atoms: _252  and  _253
REMARK  102  A    between atoms: _255  and  _257
REMARK  103  A    between atoms: _257  and  _258
REMARK  104  A    between atoms: _257  and  _260
REMARK  105  A    between atoms: _260  and  _261
REMARK  106  A    between atoms: _266  and  _267
REMARK  107  A    between atoms: _269  and  _271
REMARK  108  A    between atoms: _271  and  _272
REMARK  109  A    between atoms: _271  and  _274
REMARK  110  A    between atoms: _274  and  _275
REMARK  111  A    between atoms: _280  and  _282
REMARK  112  A    between atoms: _282  and  _283
REMARK  113  A    between atoms: _282  and  _285
REMARK  114  A    between atoms: _288  and  _290
REMARK  115  A    between atoms: _290  and  _291
REMARK  116  A    between atoms: _290  and  _293
REMARK  117  A    between atoms: _293  and  _294
REMARK  118  A    between atoms: _294  and  _295
REMARK  119  A    between atoms: _295  and  _296
REMARK  120  A    between atoms: _305  and  _307
REMARK  121  A    between atoms: _307  and  _308
REMARK  122  A    between atoms: _307  and  _310
REMARK  123  A    between atoms: _310  and  _311
REMARK  124  A    between atoms: _316  and  _318
REMARK  125  A    between atoms: _318  and  _319
REMARK  126  A    between atoms: _318  and  _321
REMARK  127  A    between atoms: _321  and  _322
REMARK  128  A    between atoms: _325  and  _327
REMARK  129  A    between atoms: _327  and  _328
REMARK  130  A    between atoms: _330  and  _332
REMARK  131  A    between atoms: _332  and  _333
REMARK  132  A    between atoms: _332  and  _335
REMARK  133  A    between atoms: _335  and  _336
REMARK  134  A    between atoms: _346  and  _348
REMARK  135  A    between atoms: _348  and  _349
REMARK  136  A    between atoms: _348  and  _351
REMARK  137  A    between atoms: _351  and  _352
REMARK  138  A    between atoms: _353  and  _355
REMARK  139  A    between atoms: _355  and  _356
REMARK  140  A    between atoms: _355  and  _358
REMARK  141  A    between atoms: _358  and  _359
REMARK  142  A    between atoms: _362  and  _364
REMARK  143  A    between atoms: _364  and  _365
REMARK  144  A    between atoms: _367  and  _369
REMARK  145  A    between atoms: _369  and  _370
REMARK  146  A    between atoms: _369  and  _372
REMARK  147  A    between atoms: _372  and  _373
REMARK  148  A    between atoms: _378  and  _379
REMARK  149  A    between atoms: _381  and  _383
REMARK  150  A    between atoms: _383  and  _384
REMARK  151  A    between atoms: _383  and  _386
REMARK  152  A    between atoms: _386  and  _387
REMARK  153  A    between atoms: _387  and  _388
REMARK  154  A    between atoms: _388  and  _389
REMARK  155  A    between atoms: _398  and  _400
REMARK  156  A    between atoms: _400  and  _401
REMARK  157  A    between atoms: _400  and  _403
REMARK  158  A    between atoms: _403  and  _404
REMARK  159  A    between atoms: _407  and  _409
REMARK  160  A    between atoms: _409  and  _410
REMARK  161  A    between atoms: _409  and  _412
REMARK  162  A    between atoms: _412  and  _413
REMARK  163  A    between atoms: _413  and  _414
REMARK  164  A    between atoms: _414  and  _415
REMARK  165  A    between atoms: _415  and  _416
REMARK  166  A    between atoms: _420  and  _422
REMARK  167  A    between atoms: _422  and  _423
REMARK  168  A    between atoms: _425  and  _427
REMARK  169  A    between atoms: _427  and  _428
REMARK  170  A    between atoms: _431  and  _433
REMARK  171  A    between atoms: _433  and  _434
REMARK  172  A    between atoms: _433  and  _436
REMARK  173  A    between atoms: _436  and  _437
REMARK  174  A    between atoms: _442  and  _444
REMARK  175  A    between atoms: _444  and  _445
REMARK  176  A    between atoms: _448  and  _450
REMARK  177  A    between atoms: _450  and  _451
REMARK  178  A    between atoms: _454  and  _455
REMARK  179  A    between atoms: _460  and  _462
REMARK  180  A    between atoms: _462  and  _463
REMARK  181  A    between atoms: _462  and  _465
REMARK  182  A    between atoms: _465  and  _466
REMARK  183  A    between atoms: _469  and  _471
REMARK  184  A    between atoms: _471  and  _472
REMARK  185  A    between atoms: _471  and  _474
REMARK  186  A    between atoms: _474  and  _475
REMARK  187  A    between atoms: _485  and  _487
REMARK  188  A    between atoms: _487  and  _488
REMARK  189  A    between atoms: _487  and  _490
REMARK  190  A    between atoms: _490  and  _491
REMARK  191  A    between atoms: _497  and  _498
REMARK  192  A    between atoms: _503  and  _505
REMARK  193  A    between atoms: _505  and  _506
REMARK  194  A    between atoms: _505  and  _508
REMARK  195  A    between atoms: _508  and  _509
REMARK  196  A    between atoms: _514  and  _516
REMARK  197  A    between atoms: _516  and  _517
REMARK  198  A    between atoms: _516  and  _519
REMARK  199  A    between atoms: _522  and  _524
REMARK  200  A    between atoms: _524  and  _525
REMARK  201  A    between atoms: _524  and  _527
REMARK  202  A    between atoms: _527  and  _528
REMARK  203  A    between atoms: _528  and  _529
REMARK  204  A    between atoms: _535  and  _536
REMARK  205  A    between atoms: _541  and  _543
REMARK  206  A    between atoms: _543  and  _544
REMARK  207  A    between atoms: _543  and  _546
REMARK  208  A    between atoms: _546  and  _547
REMARK  209  A    between atoms: _550  and  _552
REMARK  210  A    between atoms: _552  and  _553
REMARK  211  A    between atoms: _552  and  _555
REMARK  212  A    between atoms: _555  and  _556
REMARK  213  A    between atoms: _558  and  _560
REMARK  214  A    between atoms: _560  and  _561
REMARK  215  A    between atoms: _560  and  _563
REMARK  216  A    between atoms: _563  and  _564
REMARK  217  A    between atoms: _569  and  _570
REMARK  218  A    between atoms: _572  and  _574
REMARK  219  A    between atoms: _574  and  _575
REMARK  220  A    between atoms: _574  and  _577
REMARK  221  A    between atoms: _577  and  _578
REMARK  222  A    between atoms: _588  and  _590
REMARK  223  A    between atoms: _590  and  _591
REMARK  224  A    between atoms: _593  and  _595
REMARK  225  A    between atoms: _595  and  _596
REMARK  226  A    between atoms: _599  and  _601
REMARK  227  A    between atoms: _601  and  _602
REMARK  228  A    between atoms: _601  and  _604
REMARK  229  A    between atoms: _604  and  _605
REMARK  230  A    between atoms: _610  and  _612
REMARK  231  A    between atoms: _612  and  _613
REMARK  232  A    between atoms: _616  and  _618
REMARK  233  A    between atoms: _618  and  _619
REMARK  234  A    between atoms: _622  and  _623
REMARK  235  A    between atoms: _628  and  _630
REMARK  236  A    between atoms: _630  and  _631
REMARK  237  A    between atoms: _630  and  _633
REMARK  238  A    between atoms: _633  and  _634
REMARK  239  A    between atoms: _637  and  _639
REMARK  240  A    between atoms: _639  and  _640
REMARK  241  A    between atoms: _639  and  _642
REMARK  242  A    between atoms: _642  and  _643
REMARK  243  A    between atoms: _653  and  _655
REMARK  244  A    between atoms: _655  and  _656
REMARK  245  A    between atoms: _655  and  _658
REMARK  246  A    between atoms: _658  and  _659
REMARK  247  A    between atoms: _664  and  _666
REMARK  248  A    between atoms: _666  and  _667
REMARK  249  A    between atoms: _666  and  _669
REMARK  250  A    between atoms: _669  and  _670
REMARK  251  A    between atoms: _673  and  _675
REMARK  252  A    between atoms: _675  and  _676
REMARK  253  A    between atoms: _675  and  _678
REMARK  254  A    between atoms: _678  and  _679
REMARK  255  A    between atoms: _679  and  _680
REMARK  256  A    between atoms: _683  and  _685
REMARK  257  A    between atoms: _685  and  _686
REMARK  258  A    between atoms: _685  and  _688
REMARK  259  A    between atoms: _688  and  _689
REMARK  260  A    between atoms: _689  and  _690
REMARK  261  A    between atoms: _690  and  _691
REMARK  262  A    between atoms: _691  and  _692
REMARK  263  A    between atoms: _696  and  _698
REMARK  264  A    between atoms: _698  and  _699
REMARK  265  A    between atoms: _698  and  _701
REMARK  266  A    between atoms: _701  and  _702
REMARK  267  A    between atoms: _707  and  _709
REMARK  268  A    between atoms: _709  and  _710
REMARK  269  A    between atoms: _709  and  _712
REMARK  270  A    between atoms: _712  and  _713
REMARK  271  A    between atoms: _713  and  _714
REMARK  272  A    between atoms: _714  and  _715
REMARK  273  A    between atoms: _724  and  _726
REMARK  274  A    between atoms: _726  and  _727
REMARK  275  A    between atoms: _726  and  _729
REMARK  276  A    between atoms: _729  and  _730
REMARK  277  A    between atoms: _733  and  _735
REMARK  278  A    between atoms: _735  and  _736
REMARK  279  A    between atoms: _735  and  _738
REMARK  280  A    between atoms: _741  and  _743
REMARK  281  A    between atoms: _743  and  _744
REMARK  282  A    between atoms: _743  and  _746
REMARK  283  A    between atoms: _746  and  _747
REMARK  284  A    between atoms: _747  and  _748
REMARK  285  A    between atoms: _754  and  _755
REMARK  286  A    between atoms: _760  and  _762
REMARK  287  A    between atoms: _762  and  _763
REMARK  288  A    between atoms: _762  and  _765
REMARK  289  A    between atoms: _765  and  _766
REMARK  290  A    between atoms: _769  and  _771
REMARK  291  A    between atoms: _771  and  _772
REMARK  292  A    between atoms: _771  and  _774
REMARK  293  A    between atoms: _774  and  _775
REMARK  294  A    between atoms: _775  and  _776
REMARK  295  A    between atoms: _776  and  _777
REMARK  296  A    between atoms: _786  and  _788
REMARK  297  A    between atoms: _788  and  _789
REMARK                            x       y       z     vdW  Elec       q    Type
REMARK                         _______ _______ _______ _____ _____    ______ ____
ROOT
ATOM      1  O   HOH     1      12.789  25.523 -14.481  0.00  0.00    +0.000 OA
ENDROOT
TORSDOF 0
REMARK  Name = ../refined-set-2016/3o4k/3o4k_pocket.pdb
REMARK  297 active torsions:
REMARK  status: ('A' for Active; 'I' for Inactive)
REMARK    1  A    between atoms: _1  and  _3
REMARK    2  A    between atoms: _3  and  _4
REMARK    3  A    between atoms: _3  and  _6
REMARK    4  A    between atoms: _6  and  _7
REMARK    5  A    between atoms: _7  and  _8
REMARK    6  A    between atoms: _8  and  _9
REMARK    7  A    between atoms: _18  and  _20
REMARK    8  A    between atoms: _20  and  _21
REMARK    9  A    between atoms: _20  and  _23
REMARK   10  A    between atoms: _23  and  _24
REMARK   11  A    between atoms: _29  and  _30
REMARK   12  A    between atoms: _32  and  _34
REMARK   13  A    between atoms: _34  and  _35
REMARK   14  A    between atoms: _34  and  _37
REMARK   15  A    between atoms: _37  and  _38
REMARK   16  A    between atoms: _48  and  _50
REMARK   17  A    between atoms: _50  and  _51
REMARK   18  A    between atoms: _50  and  _53
REMARK   19  A    between atoms: _53  and  _54
REMARK   20  A    between atoms: _54  and  _55
REMARK   21  A    between atoms: _55  and  _56
REMARK   22  A    between atoms: _65  and  _67
REMARK   23  A    between atoms: _67  and  _68
REMARK   24  A    between atoms: _67  and  _70
REMARK   25  A    between atoms: _70  and  _71
REMARK   26  A    between atoms: _73  and  _75
REMARK   27  A    between atoms: _75  and  _76
REMARK   28  A    between atoms: _75  and  _78
REMARK   29  A    between atoms: _78  and  _79
REMARK   30  A    between atoms: _84  and  _86
REMARK   31  A    between atoms: _86  and  _87
REMARK   32  A    between atoms: _86  and  _89
REMARK   33  A    between atoms: _89  and  _90
REMARK   34  A    between atoms: _95  and  _96
REMARK   35  A    between atoms: _98  and  _100
REMARK   36  A    between atoms: _100  and  _101
REMARK   37  A    between atoms: _100  and  _103
REMARK   38  A    between atoms: _103  and  _104
REMARK   39  A    between atoms: _104  and  _105
REMARK   40  A    between atoms: _108  and  _110
REMARK   41  A    between atoms: _110  and  _111
REMARK   42  A    between atoms: _110  and  _113
REMARK   43  A    between atoms: _116  and  _118
REMARK   44  A    between atoms: _118  and  _119
REMARK   45  A    between atoms: _118  and  _121
REMARK   46  A    between atoms: _121  and  _122
REMARK   47  A    between atoms: _122  and  _123
REMARK   48  A    between atoms: _123  and  _124
REMARK   49  A    between atoms: _124  and  _125
REMARK   50  A    between atoms: _129  and  _131
REMARK   51  A    between atoms: _131  and  _132
REMARK   52  A    between atoms: _131  and  _134
REMARK   53  A    between atoms: _134  and  _135
REMARK   54  A    between atoms: _140  and  _142
REMARK   55  A    between atoms: _142  and  _143
REMARK   56  A    between atoms: _142  and  _145
REMARK   57  A    between atoms: _145  and  _146
REMARK   58  A    between atoms: _151  and  _152
REMARK   59  A    between atoms: _154  and  _156
REMARK   60  A    between atoms: _156  and  _157
REMARK   61  A    between atoms: _156  and  _159
REMARK   62  A    between atoms: _159  and  _160
REMARK   63  A    between atoms: _160  and  _161
REMARK   64  A    between atoms: _161  and  _162
REMARK   65  A    between atoms: _171  and  _173
REMARK   66  A    between atoms: _173  and  _174
REMARK   67  A    between atoms: _178  and  _180
REMARK   68  A    between atoms: _180  and  _181
REMARK   69  A    between atoms: _180  and  _183
REMARK   70  A    between atoms: _183  and  _184
REMARK   71  A    between atoms: _186  and  _188
REMARK   72  A    between atoms: _188  and  _189
REMARK   73  A    between atoms: _188  and  _191
REMARK   74  A    between atoms: _191  and  _192
REMARK   75  A    between atoms: _192  and  _193
REMARK   76  A    between atoms: _196  and  _198
REMARK   77  A    between atoms: _198  and  _199
REMARK   78  A    between atoms: _198  and  _201
REMARK   79  A    between atoms: _201  and  _202
REMARK   80  A    between atoms: _202  and  _352
REMARK   81  A    between atoms: _203  and  _205
REMARK   82  A    between atoms: _205  and  _206
REMARK   83  A    between atoms: _205  and  _208
REMARK   84  A    between atoms: _208  and  _209
REMARK   85  A    between atoms: _209  and  _210
REMARK   86  A    between atoms: _210  and  _211
REMARK   87  A    between atoms: _220  and  _222
REMARK   88  A    between atoms: _222  and  _223
REMARK   89  A    between atoms: _222  and  _225
REMARK   90  A    between atoms: _225  and  _226
REMARK   91  A    between atoms: _226  and  _227
REMARK   92  A    between atoms: _230  and  _232
REMARK   93  A    between atoms: _232  and  _233
REMARK   94  A    between atoms: _232  and  _235
REMARK   95  A    between atoms: _235  and  _236
REMARK   96  A    between atoms: _236  and  _237
REMARK   97  A    between atoms: _237  and  _238
REMARK   98  A    between atoms: _247  and  _249
REMARK   99  A    between atoms: _249  and  _250
REMARK  100  A    between atoms: _249  and  _252
REMARK  101  A    between atoms: _252  and  _253
REMARK  102  A    between atoms: _255  and  _257
REMARK  103  A    between atoms: _257  and  _258
REMARK  104  A    between atoms: _257  and  _260
REMARK  105  A    between atoms: _260  and  _261
REMARK  106  A    between atoms: _266  and  _267
REMARK  107  A    between atoms: _269  and  _271
REMARK  108  A    between atoms: _271  and  _272
REMARK  109  A    between atoms: _271  and  _274
REMARK  110  A    between atoms: _274  and  _275
REMARK  111  A    between atoms: _280  and  _282
REMARK  112  A    between atoms: _282  and  _283
REMARK  113  A    between atoms: _282  and  _285
REMARK  114  A    between atoms: _288  and  _290
REMARK  115  A    between atoms: _290  and  _291
REMARK  116  A    between atoms: _290  and  _293
REMARK  117  A    between atoms: _293  and  _294
REMARK  118  A    between atoms: _294  and  _295
REMARK  119  A    between atoms: _295  and  _296
REMARK  120  A    between atoms: _305  and  _307
REMARK  121  A    between atoms: _307  and  _308
REMARK  122  A    between atoms: _307  and  _310
REMARK  123  A    between atoms: _310  and  _311
REMARK  124  A    between atoms: _316  and  _318
REMARK  125  A    between atoms: _318  and  _319
REMARK  126  A    between atoms: _318  and  _321
REMARK  127  A    between atoms: _321  and  _322
REMARK  128  A    between atoms: _325  and  _327
REMARK  129  A    between atoms: _327  and  _328
REMARK  130  A    between atoms: _330  and  _332
REMARK  131  A    between atoms: _332  and  _333
REMARK  132  A    between atoms: _332  and  _335
REMARK  133  A    between atoms: _335  and  _336
REMARK  134  A    between atoms: _346  and  _348
REMARK  135  A    between atoms: _348  and  _349
REMARK  136  A    between atoms: _348  and  _351
REMARK  137  A    between atoms: _351  and  _352
REMARK  138  A    between atoms: _353  and  _355
REMARK  139  A    between atoms: _355  and  _356
REMARK  140  A    between atoms: _355  and  _358
REMARK  141  A    between atoms: _358  and  _359
REMARK  142  A    between atoms: _362  and  _364
REMARK  143  A    between atoms: _364  and  _365
REMARK  144  A    between atoms: _367  and  _369
REMARK  145  A    between atoms: _369  and  _370
REMARK  146  A    between atoms: _369  and  _372
REMARK  147  A    between atoms: _372  and  _373
REMARK  148  A    between atoms: _378  and  _379
REMARK  149  A    between atoms: _381  and  _383
REMARK  150  A    between atoms: _383  and  _384
REMARK  151  A    between atoms: _383  and  _386
REMARK  152  A    between atoms: _386  and  _387
REMARK  153  A    between atoms: _387  and  _388
REMARK  154  A    between atoms: _388  and  _389
REMARK  155  A    between atoms: _398  and  _400
REMARK  156  A    between atoms: _400  and  _401
REMARK  157  A    between atoms: _400  and  _403
REMARK  158  A    between atoms: _403  and  _404
REMARK  159  A    between atoms: _407  and  _409
REMARK  160  A    between atoms: _409  and  _410
REMARK  161  A    between atoms: _409  and  _412
REMARK  162  A    between atoms: _412  and  _413
REMARK  163  A    between atoms: _413  and  _414
REMARK  164  A    between atoms: _414  and  _415
REMARK  165  A    between atoms: _415  and  _416
REMARK  166  A    between atoms: _420  and  _422
REMARK  167  A    between atoms: _422  and  _423
REMARK  168  A    between atoms: _425  and  _427
REMARK  169  A    between atoms: _427  and  _428
REMARK  170  A    between atoms: _431  and  _433
REMARK  171  A    between atoms: _433  and  _434
REMARK  172  A    between atoms: _433  and  _436
REMARK  173  A    between atoms: _436  and  _437
REMARK  174  A    between atoms: _442  and  _444
REMARK  175  A    between atoms: _444  and  _445
REMARK  176  A    between atoms: _448  and  _450
REMARK  177  A    between atoms: _450  and  _451
REMARK  178  A    between atoms: _454  and  _455
REMARK  179  A    between atoms: _460  and  _462
REMARK  180  A    between atoms: _462  and  _463
REMARK  181  A    between atoms: _462  and  _465
REMARK  182  A    between atoms: _465  and  _466
REMARK  183  A    between atoms: _469  and  _471
REMARK  184  A    between atoms: _471  and  _472
REMARK  185  A    between atoms: _471  and  _474
REMARK  186  A    between atoms: _474  and  _475
REMARK  187  A    between atoms: _485  and  _487
REMARK  188  A    between atoms: _487  and  _488
REMARK  189  A    between atoms: _487  and  _490
REMARK  190  A    between atoms: _490  and  _491
REMARK  191  A    between atoms: _497  and  _498
REMARK  192  A    between atoms: _503  and  _505
REMARK  193  A    between atoms: _505  and  _506
REMARK  194  A    between atoms: _505  and  _508
REMARK  195  A    between atoms: _508  and  _509
REMARK  196  A    between atoms: _514  and  _516
REMARK  197  A    between atoms: _516  and  _517
REMARK  198  A    between atoms: _516  and  _519
REMARK  199  A    between atoms: _522  and  _524
REMARK  200  A    between atoms: _524  and  _525
REMARK  201  A    between atoms: _524  and  _527
REMARK  202  A    between atoms: _527  and  _528
REMARK  203  A    between atoms: _528  and  _529
REMARK  204  A    between atoms: _535  and  _536
REMARK  205  A    between atoms: _541  and  _543
REMARK  206  A    between atoms: _543  and  _544
REMARK  207  A    between atoms: _543  and  _546
REMARK  208  A    between atoms: _546  and  _547
REMARK  209  A    between atoms: _550  and  _552
REMARK  210  A    between atoms: _552  and  _553
REMARK  211  A    between atoms: _552  and  _555
REMARK  212  A    between atoms: _555  and  _556
REMARK  213  A    between atoms: _558  and  _560
REMARK  214  A    between atoms: _560  and  _561
REMARK  215  A    between atoms: _560  and  _563
REMARK  216  A    between atoms: _563  and  _564
REMARK  217  A    between atoms: _569  and  _570
REMARK  218  A    between atoms: _572  and  _574
REMARK  219  A    between atoms: _574  and  _575
REMARK  220  A    between atoms: _574  and  _577
REMARK  221  A    between atoms: _577  and  _578
REMARK  222  A    between atoms: _588  and  _590
REMARK  223  A    between atoms: _590  and  _591
REMARK  224  A    between atoms: _593  and  _595
REMARK  225  A    between atoms: _595  and  _596
REMARK  226  A    between atoms: _599  and  _601
REMARK  227  A    between atoms: _601  and  _602
REMARK  228  A    between atoms: _601  and  _604
REMARK  229  A    between atoms: _604  and  _605
REMARK  230  A    between atoms: _610  and  _612
REMARK  231  A    between atoms: _612  and  _613
REMARK  232  A    between atoms: _616  and  _618
REMARK  233  A    between atoms: _618  and  _619
REMARK  234  A    between atoms: _622  and  _623
REMARK  235  A    between atoms: _628  and  _630
REMARK  236  A    between atoms: _630  and  _631
REMARK  237  A    between atoms: _630  and  _633
REMARK  238  A    between atoms: _633  and  _634
REMARK  239  A    between atoms: _637  and  _639
REMARK  240  A    between atoms: _639  and  _640
REMARK  241  A    between atoms: _639  and  _642
REMARK  242  A    between atoms: _642  and  _643
REMARK  243  A    between atoms: _653  and  _655
REMARK  244  A    between atoms: _655  and  _656
REMARK  245  A    between atoms: _655  and  _658
REMARK  246  A    between atoms: _658  and  _659
REMARK  247  A    between atoms: _664  and  _666
REMARK  248  A    between atoms: _666  and  _667
REMARK  249  A    between atoms: _666  and  _669
REMARK  250  A    between atoms: _669  and  _670
REMARK  251  A    between atoms: _673  and  _675
REMARK  252  A    between atoms: _675  and  _676
REMARK  253  A    between atoms: _675  and  _678
REMARK  254  A    between atoms: _678  and  _679
REMARK  255  A    between atoms: _679  and  _680
REMARK  256  A    between atoms: _683  and  _685
REMARK  257  A    between atoms: _685  and  _686
REMARK  258  A    between atoms: _685  and  _688
REMARK  259  A    between atoms: _688  and  _689
REMARK  260  A    between atoms: _689  and  _690
REMARK  261  A    between atoms: _690  and  _691
REMARK  262  A    between atoms: _691  and  _692
REMARK  263  A    between atoms: _696  and  _698
REMARK  264  A    between atoms: _698  and  _699
REMARK  265  A    between atoms: _698  and  _701
REMARK  266  A    between atoms: _701  and  _702
REMARK  267  A    between atoms: _707  and  _709
REMARK  268  A    between atoms: _709  and  _710
REMARK  269  A    between atoms: _709  and  _712
REMARK  270  A    between atoms: _712  and  _713
REMARK  271  A    between atoms: _713  and  _714
REMARK  272  A    between atoms: _714  and  _715
REMARK  273  A    between atoms: _724  and  _726
REMARK  274  A    between atoms: _726  and  _727
REMARK  275  A    between atoms: _726  and  _729
REMARK  276  A    between atoms: _729  and  _730
REMARK  277  A    between atoms: _733  and  _735
REMARK  278  A    between atoms: _735  and  _736
REMARK  279  A    between atoms: _735  and  _738
REMARK  280  A    between atoms: _741  and  _743
REMARK  281  A    between atoms: _743  and  _744
REMARK  282  A    between atoms: _743  and  _746
REMARK  283  A    between atoms: _746  and  _747
REMARK  284  A    between atoms: _747  and  _748
REMARK  285  A    between atoms: _754  and  _755
REMARK  286  A    between atoms: _760  and  _762
REMARK  287  A    between atoms: _762  and  _763
REMARK  288  A    between atoms: _762  and  _765
REMARK  289  A    between atoms: _765  and  _766
REMARK  290  A    between atoms: _769  and  _771
REMARK  291  A    between atoms: _771  and  _772
REMARK  292  A    between atoms: _771  and  _774
REMARK  293  A    between atoms: _774  and  _775
REMARK  294  A    between atoms: _775  and  _776
REMARK  295  A    between atoms: _776  and  _777
REMARK  296  A    between atoms: _786  and  _788
REMARK  297  A    between atoms: _788  and  _789
REMARK                            x       y       z     vdW  Elec       q    Type
REMARK                         _______ _______ _______ _____ _____    ______ ____
ROOT
ATOM      1  O   HOH     1       2.931  16.826 -27.153  0.00  0.00    +0.000 OA
ENDROOT
TORSDOF 0
REMARK  Name = ../refined-set-2016/3o4k/3o4k_pocket.pdb
REMARK  297 active torsions:
REMARK  status: ('A' for Active; 'I' for Inactive)
REMARK    1  A    between atoms: _1  and  _3
REMARK    2  A    between atoms: _3  and  _4
REMARK    3  A    between atoms: _3  and  _6
REMARK    4  A    between atoms: _6  and  _7
REMARK    5  A    between atoms: _7  and  _8
REMARK    6  A    between atoms: _8  and  _9
REMARK    7  A    between atoms: _18  and  _20
REMARK    8  A    between atoms: _20  and  _21
REMARK    9  A    between atoms: _20  and  _23
REMARK   10  A    between atoms: _23  and  _24
REMARK   11  A    between atoms: _29  and  _30
REMARK   12  A    between atoms: _32  and  _34
REMARK   13  A    between atoms: _34  and  _35
REMARK   14  A    between atoms: _34  and  _37
REMARK   15  A    between atoms: _37  and  _38
REMARK   16  A    between atoms: _48  and  _50
REMARK   17  A    between atoms: _50  and  _51
REMARK   18  A    between atoms: _50  and  _53
REMARK   19  A    between atoms: _53  and  _54
REMARK   20  A    between atoms: _54  and  _55
REMARK   21  A    between atoms: _55  and  _56
REMARK   22  A    between atoms: _65  and  _67
REMARK   23  A    between atoms: _67  and  _68
REMARK   24  A    between atoms: _67  and  _70
REMARK   25  A    between atoms: _70  and  _71
REMARK   26  A    between atoms: _73  and  _75
REMARK   27  A    between atoms: _75  and  _76
REMARK   28  A    between atoms: _75  and  _78
REMARK   29  A    between atoms: _78  and  _79
REMARK   30  A    between atoms: _84  and  _86
REMARK   31  A    between atoms: _86  and  _87
REMARK   32  A    between atoms: _86  and  _89
REMARK   33  A    between atoms: _89  and  _90
REMARK   34  A    between atoms: _95  and  _96
REMARK   35  A    between atoms: _98  and  _100
REMARK   36  A    between atoms: _100  and  _101
REMARK   37  A    between atoms: _100  and  _103
REMARK   38  A    between atoms: _103  and  _104
REMARK   39  A    between atoms: _104  and  _105
REMARK   40  A    between atoms: _108  and  _110
REMARK   41  A    between atoms: _110  and  _111
REMARK   42  A    between atoms: _110  and  _113
REMARK   43  A    between atoms: _116  and  _118
REMARK   44  A    between atoms: _118  and  _119
REMARK   45  A    between atoms: _118  and  _121
REMARK   46  A    between atoms: _121  and  _122
REMARK   47  A    between atoms: _122  and  _123
REMARK   48  A    between atoms: _123  and  _124
REMARK   49  A    between atoms: _124  and  _125
REMARK   50  A    between atoms: _129  and  _131
REMARK   51  A    between atoms: _131  and  _132
REMARK   52  A    between atoms: _131  and  _134
REMARK   53  A    between atoms: _134  and  _135
REMARK   54  A    between atoms: _140  and  _142
REMARK   55  A    between atoms: _142  and  _143
REMARK   56  A    between atoms: _142  and  _145
REMARK   57  A    between atoms: _145  and  _146
REMARK   58  A    between atoms: _151  and  _152
REMARK   59  A    between atoms: _154  and  _156
REMARK   60  A    between atoms: _156  and  _157
REMARK   61  A    between atoms: _156  and  _159
REMARK   62  A    between atoms: _159  and  _160
REMARK   63  A    between atoms: _160  and  _161
REMARK   64  A    between atoms: _161  and  _162
REMARK   65  A    between atoms: _171  and  _173
REMARK   66  A    between atoms: _173  and  _174
REMARK   67  A    between atoms: _178  and  _180
REMARK   68  A    between atoms: _180  and  _181
REMARK   69  A    between atoms: _180  and  _183
REMARK   70  A    between atoms: _183  and  _184
REMARK   71  A    between atoms: _186  and  _188
REMARK   72  A    between atoms: _188  and  _189
REMARK   73  A    between atoms: _188  and  _191
REMARK   74  A    between atoms: _191  and  _192
REMARK   75  A    between atoms: _192  and  _193
REMARK   76  A    between atoms: _196  and  _198
REMARK   77  A    between atoms: _198  and  _199
REMARK   78  A    between atoms: _198  and  _201
REMARK   79  A    between atoms: _201  and  _202
REMARK   80  A    between atoms: _202  and  _352
REMARK   81  A    between atoms: _203  and  _205
REMARK   82  A    between atoms: _205  and  _206
REMARK   83  A    between atoms: _205  and  _208
REMARK   84  A    between atoms: _208  and  _209
REMARK   85  A    between atoms: _209  and  _210
REMARK   86  A    between atoms: _210  and  _211
REMARK   87  A    between atoms: _220  and  _222
REMARK   88  A    between atoms: _222  and  _223
REMARK   89  A    between atoms: _222  and  _225
REMARK   90  A    between atoms: _225  and  _226
REMARK   91  A    between atoms: _226  and  _227
REMARK   92  A    between atoms: _230  and  _232
REMARK   93  A    between atoms: _232  and  _233
REMARK   94  A    between atoms: _232  and  _235
REMARK   95  A    between atoms: _235  and  _236
REMARK   96  A    between atoms: _236  and  _237
REMARK   97  A    between atoms: _237  and  _238
REMARK   98  A    between atoms: _247  and  _249
REMARK   99  A    between atoms: _249  and  _250
REMARK  100  A    between atoms: _249  and  _252
REMARK  101  A    between atoms: _252  and  _253
REMARK  102  A    between atoms: _255  and  _257
REMARK  103  A    between atoms: _257  and  _258
REMARK  104  A    between atoms: _257  and  _260
REMARK  105  A    between atoms: _260  and  _261
REMARK  106  A    between atoms: _266  and  _267
REMARK  107  A    between atoms: _269  and  _271
REMARK  108  A    between atoms: _271  and  _272
REMARK  109  A    between atoms: _271  and  _274
REMARK  110  A    between atoms: _274  and  _275
REMARK  111  A    between atoms: _280  and  _282
REMARK  112  A    between atoms: _282  and  _283
REMARK  113  A    between atoms: _282  and  _285
REMARK  114  A    between atoms: _288  and  _290
REMARK  115  A    between atoms: _290  and  _291
REMARK  116  A    between atoms: _290  and  _293
REMARK  117  A    between atoms: _293  and  _294
REMARK  118  A    between atoms: _294  and  _295
REMARK  119  A    between atoms: _295  and  _296
REMARK  120  A    between atoms: _305  and  _307
REMARK  121  A    between atoms: _307  and  _308
REMARK  122  A    between atoms: _307  and  _310
REMARK  123  A    between atoms: _310  and  _311
REMARK  124  A    between atoms: _316  and  _318
REMARK  125  A    between atoms: _318  and  _319
REMARK  126  A    between atoms: _318  and  _321
REMARK  127  A    between atoms: _321  and  _322
REMARK  128  A    between atoms: _325  and  _327
REMARK  129  A    between atoms: _327  and  _328
REMARK  130  A    between atoms: _330  and  _332
REMARK  131  A    between atoms: _332  and  _333
REMARK  132  A    between atoms: _332  and  _335
REMARK  133  A    between atoms: _335  and  _336
REMARK  134  A    between atoms: _346  and  _348
REMARK  135  A    between atoms: _348  and  _349
REMARK  136  A    between atoms: _348  and  _351
REMARK  137  A    between atoms: _351  and  _352
REMARK  138  A    between atoms: _353  and  _355
REMARK  139  A    between atoms: _355  and  _356
REMARK  140  A    between atoms: _355  and  _358
REMARK  141  A    between atoms: _358  and  _359
REMARK  142  A    between atoms: _362  and  _364
REMARK  143  A    between atoms: _364  and  _365
REMARK  144  A    between atoms: _367  and  _369
REMARK  145  A    between atoms: _369  and  _370
REMARK  146  A    between atoms: _369  and  _372
REMARK  147  A    between atoms: _372  and  _373
REMARK  148  A    between atoms: _378  and  _379
REMARK  149  A    between atoms: _381  and  _383
REMARK  150  A    between atoms: _383  and  _384
REMARK  151  A    between atoms: _383  and  _386
REMARK  152  A    between atoms: _386  and  _387
REMARK  153  A    between atoms: _387  and  _388
REMARK  154  A    between atoms: _388  and  _389
REMARK  155  A    between atoms: _398  and  _400
REMARK  156  A    between atoms: _400  and  _401
REMARK  157  A    between atoms: _400  and  _403
REMARK  158  A    between atoms: _403  and  _404
REMARK  159  A    between atoms: _407  and  _409
REMARK  160  A    between atoms: _409  and  _410
REMARK  161  A    between atoms: _409  and  _412
REMARK  162  A    between atoms: _412  and  _413
REMARK  163  A    between atoms: _413  and  _414
REMARK  164  A    between atoms: _414  and  _415
REMARK  165  A    between atoms: _415  and  _416
REMARK  166  A    between atoms: _420  and  _422
REMARK  167  A    between atoms: _422  and  _423
REMARK  168  A    between atoms: _425  and  _427
REMARK  169  A    between atoms: _427  and  _428
REMARK  170  A    between atoms: _431  and  _433
REMARK  171  A    between atoms: _433  and  _434
REMARK  172  A    between atoms: _433  and  _436
REMARK  173  A    between atoms: _436  and  _437
REMARK  174  A    between atoms: _442  and  _444
REMARK  175  A    between atoms: _444  and  _445
REMARK  176  A    between atoms: _448  and  _450
REMARK  177  A    between atoms: _450  and  _451
REMARK  178  A    between atoms: _454  and  _455
REMARK  179  A    between atoms: _460  and  _462
REMARK  180  A    between atoms: _462  and  _463
REMARK  181  A    between atoms: _462  and  _465
REMARK  182  A    between atoms: _465  and  _466
REMARK  183  A    between atoms: _469  and  _471
REMARK  184  A    between atoms: _471  and  _472
REMARK  185  A    between atoms: _471  and  _474
REMARK  186  A    between atoms: _474  and  _475
REMARK  187  A    between atoms: _485  and  _487
REMARK  188  A    between atoms: _487  and  _488
REMARK  189  A    between atoms: _487  and  _490
REMARK  190  A    between atoms: _490  and  _491
REMARK  191  A    between atoms: _497  and  _498
REMARK  192  A    between atoms: _503  and  _505
REMARK  193  A    between atoms: _505  and  _506
REMARK  194  A    between atoms: _505  and  _508
REMARK  195  A    between atoms: _508  and  _509
REMARK  196  A    between atoms: _514  and  _516
REMARK  197  A    between atoms: _516  and  _517
REMARK  198  A    between atoms: _516  and  _519
REMARK  199  A    between atoms: _522  and  _524
REMARK  200  A    between atoms: _524  and  _525
REMARK  201  A    between atoms: _524  and  _527
REMARK  202  A    between atoms: _527  and  _528
REMARK  203  A    between atoms: _528  and  _529
REMARK  204  A    between atoms: _535  and  _536
REMARK  205  A    between atoms: _541  and  _543
REMARK  206  A    between atoms: _543  and  _544
REMARK  207  A    between atoms: _543  and  _546
REMARK  208  A    between atoms: _546  and  _547
REMARK  209  A    between atoms: _550  and  _552
REMARK  210  A    between atoms: _552  and  _553
REMARK  211  A    between atoms: _552  and  _555
REMARK  212  A    between atoms: _555  and  _556
REMARK  213  A    between atoms: _558  and  _560
REMARK  214  A    between atoms: _560  and  _561
REMARK  215  A    between atoms: _560  and  _563
REMARK  216  A    between atoms: _563  and  _564
REMARK  217  A    between atoms: _569  and  _570
REMARK  218  A    between atoms: _572  and  _574
REMARK  219  A    between atoms: _574  and  _575
REMARK  220  A    between atoms: _574  and  _577
REMARK  221  A    between atoms: _577  and  _578
REMARK  222  A    between atoms: _588  and  _590
REMARK  223  A    between atoms: _590  and  _591
REMARK  224  A    between atoms: _593  and  _595
REMARK  225  A    between atoms: _595  and  _596
REMARK  226  A    between atoms: _599  and  _601
REMARK  227  A    between atoms: _601  and  _602
REMARK  228  A    between atoms: _601  and  _604
REMARK  229  A    between atoms: _604  and  _605
REMARK  230  A    between atoms: _610  and  _612
REMARK  231  A    between atoms: _612  and  _613
REMARK  232  A    between atoms: _616  and  _618
REMARK  233  A    between atoms: _618  and  _619
REMARK  234  A    between atoms: _622  and  _623
REMARK  235  A    between atoms: _628  and  _630
REMARK  236  A    between atoms: _630  and  _631
REMARK  237  A    between atoms: _630  and  _633
REMARK  238  A    between atoms: _633  and  _634
REMARK  239  A    between atoms: _637  and  _639
REMARK  240  A    between atoms: _639  and  _640
REMARK  241  A    between atoms: _639  and  _642
REMARK  242  A    between atoms: _642  and  _643
REMARK  243  A    between atoms: _653  and  _655
REMARK  244  A    between atoms: _655  and  _656
REMARK  245  A    between atoms: _655  and  _658
REMARK  246  A    between atoms: _658  and  _659
REMARK  247  A    between atoms: _664  and  _666
REMARK  248  A    between atoms: _666  and  _667
REMARK  249  A    between atoms: _666  and  _669
REMARK  250  A    between atoms: _669  and  _670
REMARK  251  A    between atoms: _673  and  _675
REMARK  252  A    between atoms: _675  and  _676
REMARK  253  A    between atoms: _675  and  _678
REMARK  254  A    between atoms: _678  and  _679
REMARK  255  A    between atoms: _679  and  _680
REMARK  256  A    between atoms: _683  and  _685
REMARK  257  A    between atoms: _685  and  _686
REMARK  258  A    between atoms: _685  and  _688
REMARK  259  A    between atoms: _688  and  _689
REMARK  260  A    between atoms: _689  and  _690
REMARK  261  A    between atoms: _690  and  _691
REMARK  262  A    between atoms: _691  and  _692
REMARK  263  A    between atoms: _696  and  _698
REMARK  264  A    between atoms: _698  and  _699
REMARK  265  A    between atoms: _698  and  _701
REMARK  266  A    between atoms: _701  and  _702
REMARK  267  A    between atoms: _707  and  _709
REMARK  268  A    between atoms: _709  and  _710
REMARK  269  A    between atoms: _709  and  _712
REMARK  270  A    between atoms: _712  and  _713
REMARK  271  A    between atoms: _713  and  _714
REMARK  272  A    between atoms: _714  and  _715
REMARK  273  A    between atoms: _724  and  _726
REMARK  274  A    between atoms: _726  and  _727
REMARK  275  A    between atoms: _726  and  _729
REMARK  276  A    between atoms: _729  and  _730
REMARK  277  A    between atoms: _733  and  _735
REMARK  278  A    between atoms: _735  and  _736
REMARK  279  A    between atoms: _735  and  _738
REMARK  280  A    between atoms: _741  and  _743
REMARK  281  A    between atoms: _743  and  _744
REMARK  282  A    between atoms: _743  and  _746
REMARK  283  A    between atoms: _746  and  _747
REMARK  284  A    between atoms: _747  and  _748
REMARK  285  A    between atoms: _754  and  _755
REMARK  286  A    between atoms: _760  and  _762
REMARK  287  A    between atoms: _762  and  _763
REMARK  288  A    between atoms: _762  and  _765
REMARK  289  A    between atoms: _765  and  _766
REMARK  290  A    between atoms: _769  and  _771
REMARK  291  A    between atoms: _771  and  _772
REMARK  292  A    between atoms: _771  and  _774
REMARK  293  A    between atoms: _774  and  _775
REMARK  294  A    between atoms: _775  and  _776
REMARK  295  A    between atoms: _776  and  _777
REMARK  296  A    between atoms: _786  and  _788
REMARK  297  A    between atoms: _788  and  _789
REMARK                            x       y       z     vdW  Elec       q    Type
REMARK                         _______ _______ _______ _____ _____    ______ ____
ROOT
ATOM      1  O   HOH     1      23.235  28.215 -11.978  0.00  0.00    +0.000 OA
ENDROOT
TORSDOF 0
REMARK  Name = ../refined-set-2016/3o4k/3o4k_pocket.pdb
REMARK  297 active torsions:
REMARK  status: ('A' for Active; 'I' for Inactive)
REMARK    1  A    between atoms: _1  and  _3
REMARK    2  A    between atoms: _3  and  _4
REMARK    3  A    between atoms: _3  and  _6
REMARK    4  A    between atoms: _6  and  _7
REMARK    5  A    between atoms: _7  and  _8
REMARK    6  A    between atoms: _8  and  _9
REMARK    7  A    between atoms: _18  and  _20
REMARK    8  A    between atoms: _20  and  _21
REMARK    9  A    between atoms: _20  and  _23
REMARK   10  A    between atoms: _23  and  _24
REMARK   11  A    between atoms: _29  and  _30
REMARK   12  A    between atoms: _32  and  _34
REMARK   13  A    between atoms: _34  and  _35
REMARK   14  A    between atoms: _34  and  _37
REMARK   15  A    between atoms: _37  and  _38
REMARK   16  A    between atoms: _48  and  _50
REMARK   17  A    between atoms: _50  and  _51
REMARK   18  A    between atoms: _50  and  _53
REMARK   19  A    between atoms: _53  and  _54
REMARK   20  A    between atoms: _54  and  _55
REMARK   21  A    between atoms: _55  and  _56
REMARK   22  A    between atoms: _65  and  _67
REMARK   23  A    between atoms: _67  and  _68
REMARK   24  A    between atoms: _67  and  _70
REMARK   25  A    between atoms: _70  and  _71
REMARK   26  A    between atoms: _73  and  _75
REMARK   27  A    between atoms: _75  and  _76
REMARK   28  A    between atoms: _75  and  _78
REMARK   29  A    between atoms: _78  and  _79
REMARK   30  A    between atoms: _84  and  _86
REMARK   31  A    between atoms: _86  and  _87
REMARK   32  A    between atoms: _86  and  _89
REMARK   33  A    between atoms: _89  and  _90
REMARK   34  A    between atoms: _95  and  _96
REMARK   35  A    between atoms: _98  and  _100
REMARK   36  A    between atoms: _100  and  _101
REMARK   37  A    between atoms: _100  and  _103
REMARK   38  A    between atoms: _103  and  _104
REMARK   39  A    between atoms: _104  and  _105
REMARK   40  A    between atoms: _108  and  _110
REMARK   41  A    between atoms: _110  and  _111
REMARK   42  A    between atoms: _110  and  _113
REMARK   43  A    between atoms: _116  and  _118
REMARK   44  A    between atoms: _118  and  _119
REMARK   45  A    between atoms: _118  and  _121
REMARK   46  A    between atoms: _121  and  _122
REMARK   47  A    between atoms: _122  and  _123
REMARK   48  A    between atoms: _123  and  _124
REMARK   49  A    between atoms: _124  and  _125
REMARK   50  A    between atoms: _129  and  _131
REMARK   51  A    between atoms: _131  and  _132
REMARK   52  A    between atoms: _131  and  _134
REMARK   53  A    between atoms: _134  and  _135
REMARK   54  A    between atoms: _140  and  _142
REMARK   55  A    between atoms: _142  and  _143
REMARK   56  A    between atoms: _142  and  _145
REMARK   57  A    between atoms: _145  and  _146
REMARK   58  A    between atoms: _151  and  _152
REMARK   59  A    between atoms: _154  and  _156
REMARK   60  A    between atoms: _156  and  _157
REMARK   61  A    between atoms: _156  and  _159
REMARK   62  A    between atoms: _159  and  _160
REMARK   63  A    between atoms: _160  and  _161
REMARK   64  A    between atoms: _161  and  _162
REMARK   65  A    between atoms: _171  and  _173
REMARK   66  A    between atoms: _173  and  _174
REMARK   67  A    between atoms: _178  and  _180
REMARK   68  A    between atoms: _180  and  _181
REMARK   69  A    between atoms: _180  and  _183
REMARK   70  A    between atoms: _183  and  _184
REMARK   71  A    between atoms: _186  and  _188
REMARK   72  A    between atoms: _188  and  _189
REMARK   73  A    between atoms: _188  and  _191
REMARK   74  A    between atoms: _191  and  _192
REMARK   75  A    between atoms: _192  and  _193
REMARK   76  A    between atoms: _196  and  _198
REMARK   77  A    between atoms: _198  and  _199
REMARK   78  A    between atoms: _198  and  _201
REMARK   79  A    between atoms: _201  and  _202
REMARK   80  A    between atoms: _202  and  _352
REMARK   81  A    between atoms: _203  and  _205
REMARK   82  A    between atoms: _205  and  _206
REMARK   83  A    between atoms: _205  and  _208
REMARK   84  A    between atoms: _208  and  _209
REMARK   85  A    between atoms: _209  and  _210
REMARK   86  A    between atoms: _210  and  _211
REMARK   87  A    between atoms: _220  and  _222
REMARK   88  A    between atoms: _222  and  _223
REMARK   89  A    between atoms: _222  and  _225
REMARK   90  A    between atoms: _225  and  _226
REMARK   91  A    between atoms: _226  and  _227
REMARK   92  A    between atoms: _230  and  _232
REMARK   93  A    between atoms: _232  and  _233
REMARK   94  A    between atoms: _232  and  _235
REMARK   95  A    between atoms: _235  and  _236
REMARK   96  A    between atoms: _236  and  _237
REMARK   97  A    between atoms: _237  and  _238
REMARK   98  A    between atoms: _247  and  _249
REMARK   99  A    between atoms: _249  and  _250
REMARK  100  A    between atoms: _249  and  _252
REMARK  101  A    between atoms: _252  and  _253
REMARK  102  A    between atoms: _255  and  _257
REMARK  103  A    between atoms: _257  and  _258
REMARK  104  A    between atoms: _257  and  _260
REMARK  105  A    between atoms: _260  and  _261
REMARK  106  A    between atoms: _266  and  _267
REMARK  107  A    between atoms: _269  and  _271
REMARK  108  A    between atoms: _271  and  _272
REMARK  109  A    between atoms: _271  and  _274
REMARK  110  A    between atoms: _274  and  _275
REMARK  111  A    between atoms: _280  and  _282
REMARK  112  A    between atoms: _282  and  _283
REMARK  113  A    between atoms: _282  and  _285
REMARK  114  A    between atoms: _288  and  _290
REMARK  115  A    between atoms: _290  and  _291
REMARK  116  A    between atoms: _290  and  _293
REMARK  117  A    between atoms: _293  and  _294
REMARK  118  A    between atoms: _294  and  _295
REMARK  119  A    between atoms: _295  and  _296
REMARK  120  A    between atoms: _305  and  _307
REMARK  121  A    between atoms: _307  and  _308
REMARK  122  A    between atoms: _307  and  _310
REMARK  123  A    between atoms: _310  and  _311
REMARK  124  A    between atoms: _316  and  _318
REMARK  125  A    between atoms: _318  and  _319
REMARK  126  A    between atoms: _318  and  _321
REMARK  127  A    between atoms: _321  and  _322
REMARK  128  A    between atoms: _325  and  _327
REMARK  129  A    between atoms: _327  and  _328
REMARK  130  A    between atoms: _330  and  _332
REMARK  131  A    between atoms: _332  and  _333
REMARK  132  A    between atoms: _332  and  _335
REMARK  133  A    between atoms: _335  and  _336
REMARK  134  A    between atoms: _346  and  _348
REMARK  135  A    between atoms: _348  and  _349
REMARK  136  A    between atoms: _348  and  _351
REMARK  137  A    between atoms: _351  and  _352
REMARK  138  A    between atoms: _353  and  _355
REMARK  139  A    between atoms: _355  and  _356
REMARK  140  A    between atoms: _355  and  _358
REMARK  141  A    between atoms: _358  and  _359
REMARK  142  A    between atoms: _362  and  _364
REMARK  143  A    between atoms: _364  and  _365
REMARK  144  A    between atoms: _367  and  _369
REMARK  145  A    between atoms: _369  and  _370
REMARK  146  A    between atoms: _369  and  _372
REMARK  147  A    between atoms: _372  and  _373
REMARK  148  A    between atoms: _378  and  _379
REMARK  149  A    between atoms: _381  and  _383
REMARK  150  A    between atoms: _383  and  _384
REMARK  151  A    between atoms: _383  and  _386
REMARK  152  A    between atoms: _386  and  _387
REMARK  153  A    between atoms: _387  and  _388
REMARK  154  A    between atoms: _388  and  _389
REMARK  155  A    between atoms: _398  and  _400
REMARK  156  A    between atoms: _400  and  _401
REMARK  157  A    between atoms: _400  and  _403
REMARK  158  A    between atoms: _403  and  _404
REMARK  159  A    between atoms: _407  and  _409
REMARK  160  A    between atoms: _409  and  _410
REMARK  161  A    between atoms: _409  and  _412
REMARK  162  A    between atoms: _412  and  _413
REMARK  163  A    between atoms: _413  and  _414
REMARK  164  A    between atoms: _414  and  _415
REMARK  165  A    between atoms: _415  and  _416
REMARK  166  A    between atoms: _420  and  _422
REMARK  167  A    between atoms: _422  and  _423
REMARK  168  A    between atoms: _425  and  _427
REMARK  169  A    between atoms: _427  and  _428
REMARK  170  A    between atoms: _431  and  _433
REMARK  171  A    between atoms: _433  and  _434
REMARK  172  A    between atoms: _433  and  _436
REMARK  173  A    between atoms: _436  and  _437
REMARK  174  A    between atoms: _442  and  _444
REMARK  175  A    between atoms: _444  and  _445
REMARK  176  A    between atoms: _448  and  _450
REMARK  177  A    between atoms: _450  and  _451
REMARK  178  A    between atoms: _454  and  _455
REMARK  179  A    between atoms: _460  and  _462
REMARK  180  A    between atoms: _462  and  _463
REMARK  181  A    between atoms: _462  and  _465
REMARK  182  A    between atoms: _465  and  _466
REMARK  183  A    between atoms: _469  and  _471
REMARK  184  A    between atoms: _471  and  _472
REMARK  185  A    between atoms: _471  and  _474
REMARK  186  A    between atoms: _474  and  _475
REMARK  187  A    between atoms: _485  and  _487
REMARK  188  A    between atoms: _487  and  _488
REMARK  189  A    between atoms: _487  and  _490
REMARK  190  A    between atoms: _490  and  _491
REMARK  191  A    between atoms: _497  and  _498
REMARK  192  A    between atoms: _503  and  _505
REMARK  193  A    between atoms: _505  and  _506
REMARK  194  A    between atoms: _505  and  _508
REMARK  195  A    between atoms: _508  and  _509
REMARK  196  A    between atoms: _514  and  _516
REMARK  197  A    between atoms: _516  and  _517
REMARK  198  A    between atoms: _516  and  _519
REMARK  199  A    between atoms: _522  and  _524
REMARK  200  A    between atoms: _524  and  _525
REMARK  201  A    between atoms: _524  and  _527
REMARK  202  A    between atoms: _527  and  _528
REMARK  203  A    between atoms: _528  and  _529
REMARK  204  A    between atoms: _535  and  _536
REMARK  205  A    between atoms: _541  and  _543
REMARK  206  A    between atoms: _543  and  _544
REMARK  207  A    between atoms: _543  and  _546
REMARK  208  A    between atoms: _546  and  _547
REMARK  209  A    between atoms: _550  and  _552
REMARK  210  A    between atoms: _552  and  _553
REMARK  211  A    between atoms: _552  and  _555
REMARK  212  A    between atoms: _555  and  _556
REMARK  213  A    between atoms: _558  and  _560
REMARK  214  A    between atoms: _560  and  _561
REMARK  215  A    between atoms: _560  and  _563
REMARK  216  A    between atoms: _563  and  _564
REMARK  217  A    between atoms: _569  and  _570
REMARK  218  A    between atoms: _572  and  _574
REMARK  219  A    between atoms: _574  and  _575
REMARK  220  A    between atoms: _574  and  _577
REMARK  221  A    between atoms: _577  and  _578
REMARK  222  A    between atoms: _588  and  _590
REMARK  223  A    between atoms: _590  and  _591
REMARK  224  A    between atoms: _593  and  _595
REMARK  225  A    between atoms: _595  and  _596
REMARK  226  A    between atoms: _599  and  _601
REMARK  227  A    between atoms: _601  and  _602
REMARK  228  A    between atoms: _601  and  _604
REMARK  229  A    between atoms: _604  and  _605
REMARK  230  A    between atoms: _610  and  _612
REMARK  231  A    between atoms: _612  and  _613
REMARK  232  A    between atoms: _616  and  _618
REMARK  233  A    between atoms: _618  and  _619
REMARK  234  A    between atoms: _622  and  _623
REMARK  235  A    between atoms: _628  and  _630
REMARK  236  A    between atoms: _630  and  _631
REMARK  237  A    between atoms: _630  and  _633
REMARK  238  A    between atoms: _633  and  _634
REMARK  239  A    between atoms: _637  and  _639
REMARK  240  A    between atoms: _639  and  _640
REMARK  241  A    between atoms: _639  and  _642
REMARK  242  A    between atoms: _642  and  _643
REMARK  243  A    between atoms: _653  and  _655
REMARK  244  A    between atoms: _655  and  _656
REMARK  245  A    between atoms: _655  and  _658
REMARK  246  A    between atoms: _658  and  _659
REMARK  247  A    between atoms: _664  and  _666
REMARK  248  A    between atoms: _666  and  _667
REMARK  249  A    between atoms: _666  and  _669
REMARK  250  A    between atoms: _669  and  _670
REMARK  251  A    between atoms: _673  and  _675
REMARK  252  A    between atoms: _675  and  _676
REMARK  253  A    between atoms: _675  and  _678
REMARK  254  A    between atoms: _678  and  _679
REMARK  255  A    between atoms: _679  and  _680
REMARK  256  A    between atoms: _683  and  _685
REMARK  257  A    between atoms: _685  and  _686
REMARK  258  A    between atoms: _685  and  _688
REMARK  259  A    between atoms: _688  and  _689
REMARK  260  A    between atoms: _689  and  _690
REMARK  261  A    between atoms: _690  and  _691
REMARK  262  A    between atoms: _691  and  _692
REMARK  263  A    between atoms: _696  and  _698
REMARK  264  A    between atoms: _698  and  _699
REMARK  265  A    between atoms: _698  and  _701
REMARK  266  A    between atoms: _701  and  _702
REMARK  267  A    between atoms: _707  and  _709
REMARK  268  A    between atoms: _709  and  _710
REMARK  269  A    between atoms: _709  and  _712
REMARK  270  A    between atoms: _712  and  _713
REMARK  271  A    between atoms: _713  and  _714
REMARK  272  A    between atoms: _714  and  _715
REMARK  273  A    between atoms: _724  and  _726
REMARK  274  A    between atoms: _726  and  _727
REMARK  275  A    between atoms: _726  and  _729
REMARK  276  A    between atoms: _729  and  _730
REMARK  277  A    between atoms: _733  and  _735
REMARK  278  A    between atoms: _735  and  _736
REMARK  279  A    between atoms: _735  and  _738
REMARK  280  A    between atoms: _741  and  _743
REMARK  281  A    between atoms: _743  and  _744
REMARK  282  A    between atoms: _743  and  _746
REMARK  283  A    between atoms: _746  and  _747
REMARK  284  A    between atoms: _747  and  _748
REMARK  285  A    between atoms: _754  and  _755
REMARK  286  A    between atoms: _760  and  _762
REMARK  287  A    between atoms: _762  and  _763
REMARK  288  A    between atoms: _762  and  _765
REMARK  289  A    between atoms: _765  and  _766
REMARK  290  A    between atoms: _769  and  _771
REMARK  291  A    between atoms: _771  and  _772
REMARK  292  A    between atoms: _771  and  _774
REMARK  293  A    between atoms: _774  and  _775
REMARK  294  A    between atoms: _775  and  _776
REMARK  295  A    between atoms: _776  and  _777
REMARK  296  A    between atoms: _786  and  _788
REMARK  297  A    between atoms: _788  and  _789
REMARK                            x       y       z     vdW  Elec       q    Type
REMARK                         _______ _______ _______ _____ _____    ______ ____
ROOT
ATOM      1  O   HOH     1      10.501  21.340 -10.571  0.00  0.00    +0.000 OA
ENDROOT
TORSDOF 0
REMARK  Name = ../refined-set-2016/3o4k/3o4k_pocket.pdb
REMARK  297 active torsions:
REMARK  status: ('A' for Active; 'I' for Inactive)
REMARK    1  A    between atoms: _1  and  _3
REMARK    2  A    between atoms: _3  and  _4
REMARK    3  A    between atoms: _3  and  _6
REMARK    4  A    between atoms: _6  and  _7
REMARK    5  A    between atoms: _7  and  _8
REMARK    6  A    between atoms: _8  and  _9
REMARK    7  A    between atoms: _18  and  _20
REMARK    8  A    between atoms: _20  and  _21
REMARK    9  A    between atoms: _20  and  _23
REMARK   10  A    between atoms: _23  and  _24
REMARK   11  A    between atoms: _29  and  _30
REMARK   12  A    between atoms: _32  and  _34
REMARK   13  A    between atoms: _34  and  _35
REMARK   14  A    between atoms: _34  and  _37
REMARK   15  A    between atoms: _37  and  _38
REMARK   16  A    between atoms: _48  and  _50
REMARK   17  A    between atoms: _50  and  _51
REMARK   18  A    between atoms: _50  and  _53
REMARK   19  A    between atoms: _53  and  _54
REMARK   20  A    between atoms: _54  and  _55
REMARK   21  A    between atoms: _55  and  _56
REMARK   22  A    between atoms: _65  and  _67
REMARK   23  A    between atoms: _67  and  _68
REMARK   24  A    between atoms: _67  and  _70
REMARK   25  A    between atoms: _70  and  _71
REMARK   26  A    between atoms: _73  and  _75
REMARK   27  A    between atoms: _75  and  _76
REMARK   28  A    between atoms: _75  and  _78
REMARK   29  A    between atoms: _78  and  _79
REMARK   30  A    between atoms: _84  and  _86
REMARK   31  A    between atoms: _86  and  _87
REMARK   32  A    between atoms: _86  and  _89
REMARK   33  A    between atoms: _89  and  _90
REMARK   34  A    between atoms: _95  and  _96
REMARK   35  A    between atoms: _98  and  _100
REMARK   36  A    between atoms: _100  and  _101
REMARK   37  A    between atoms: _100  and  _103
REMARK   38  A    between atoms: _103  and  _104
REMARK   39  A    between atoms: _104  and  _105
REMARK   40  A    between atoms: _108  and  _110
REMARK   41  A    between atoms: _110  and  _111
REMARK   42  A    between atoms: _110  and  _113
REMARK   43  A    between atoms: _116  and  _118
REMARK   44  A    between atoms: _118  and  _119
REMARK   45  A    between atoms: _118  and  _121
REMARK   46  A    between atoms: _121  and  _122
REMARK   47  A    between atoms: _122  and  _123
REMARK   48  A    between atoms: _123  and  _124
REMARK   49  A    between atoms: _124  and  _125
REMARK   50  A    between atoms: _129  and  _131
REMARK   51  A    between atoms: _131  and  _132
REMARK   52  A    between atoms: _131  and  _134
REMARK   53  A    between atoms: _134  and  _135
REMARK   54  A    between atoms: _140  and  _142
REMARK   55  A    between atoms: _142  and  _143
REMARK   56  A    between atoms: _142  and  _145
REMARK   57  A    between atoms: _145  and  _146
REMARK   58  A    between atoms: _151  and  _152
REMARK   59  A    between atoms: _154  and  _156
REMARK   60  A    between atoms: _156  and  _157
REMARK   61  A    between atoms: _156  and  _159
REMARK   62  A    between atoms: _159  and  _160
REMARK   63  A    between atoms: _160  and  _161
REMARK   64  A    between atoms: _161  and  _162
REMARK   65  A    between atoms: _171  and  _173
REMARK   66  A    between atoms: _173  and  _174
REMARK   67  A    between atoms: _178  and  _180
REMARK   68  A    between atoms: _180  and  _181
REMARK   69  A    between atoms: _180  and  _183
REMARK   70  A    between atoms: _183  and  _184
REMARK   71  A    between atoms: _186  and  _188
REMARK   72  A    between atoms: _188  and  _189
REMARK   73  A    between atoms: _188  and  _191
REMARK   74  A    between atoms: _191  and  _192
REMARK   75  A    between atoms: _192  and  _193
REMARK   76  A    between atoms: _196  and  _198
REMARK   77  A    between atoms: _198  and  _199
REMARK   78  A    between atoms: _198  and  _201
REMARK   79  A    between atoms: _201  and  _202
REMARK   80  A    between atoms: _202  and  _352
REMARK   81  A    between atoms: _203  and  _205
REMARK   82  A    between atoms: _205  and  _206
REMARK   83  A    between atoms: _205  and  _208
REMARK   84  A    between atoms: _208  and  _209
REMARK   85  A    between atoms: _209  and  _210
REMARK   86  A    between atoms: _210  and  _211
REMARK   87  A    between atoms: _220  and  _222
REMARK   88  A    between atoms: _222  and  _223
REMARK   89  A    between atoms: _222  and  _225
REMARK   90  A    between atoms: _225  and  _226
REMARK   91  A    between atoms: _226  and  _227
REMARK   92  A    between atoms: _230  and  _232
REMARK   93  A    between atoms: _232  and  _233
REMARK   94  A    between atoms: _232  and  _235
REMARK   95  A    between atoms: _235  and  _236
REMARK   96  A    between atoms: _236  and  _237
REMARK   97  A    between atoms: _237  and  _238
REMARK   98  A    between atoms: _247  and  _249
REMARK   99  A    between atoms: _249  and  _250
REMARK  100  A    between atoms: _249  and  _252
REMARK  101  A    between atoms: _252  and  _253
REMARK  102  A    between atoms: _255  and  _257
REMARK  103  A    between atoms: _257  and  _258
REMARK  104  A    between atoms: _257  and  _260
REMARK  105  A    between atoms: _260  and  _261
REMARK  106  A    between atoms: _266  and  _267
REMARK  107  A    between atoms: _269  and  _271
REMARK  108  A    between atoms: _271  and  _272
REMARK  109  A    between atoms: _271  and  _274
REMARK  110  A    between atoms: _274  and  _275
REMARK  111  A    between atoms: _280  and  _282
REMARK  112  A    between atoms: _282  and  _283
REMARK  113  A    between atoms: _282  and  _285
REMARK  114  A    between atoms: _288  and  _290
REMARK  115  A    between atoms: _290  and  _291
REMARK  116  A    between atoms: _290  and  _293
REMARK  117  A    between atoms: _293  and  _294
REMARK  118  A    between atoms: _294  and  _295
REMARK  119  A    between atoms: _295  and  _296
REMARK  120  A    between atoms: _305  and  _307
REMARK  121  A    between atoms: _307  and  _308
REMARK  122  A    between atoms: _307  and  _310
REMARK  123  A    between atoms: _310  and  _311
REMARK  124  A    between atoms: _316  and  _318
REMARK  125  A    between atoms: _318  and  _319
REMARK  126  A    between atoms: _318  and  _321
REMARK  127  A    between atoms: _321  and  _322
REMARK  128  A    between atoms: _325  and  _327
REMARK  129  A    between atoms: _327  and  _328
REMARK  130  A    between atoms: _330  and  _332
REMARK  131  A    between atoms: _332  and  _333
REMARK  132  A    between atoms: _332  and  _335
REMARK  133  A    between atoms: _335  and  _336
REMARK  134  A    between atoms: _346  and  _348
REMARK  135  A    between atoms: _348  and  _349
REMARK  136  A    between atoms: _348  and  _351
REMARK  137  A    between atoms: _351  and  _352
REMARK  138  A    between atoms: _353  and  _355
REMARK  139  A    between atoms: _355  and  _356
REMARK  140  A    between atoms: _355  and  _358
REMARK  141  A    between atoms: _358  and  _359
REMARK  142  A    between atoms: _362  and  _364
REMARK  143  A    between atoms: _364  and  _365
REMARK  144  A    between atoms: _367  and  _369
REMARK  145  A    between atoms: _369  and  _370
REMARK  146  A    between atoms: _369  and  _372
REMARK  147  A    between atoms: _372  and  _373
REMARK  148  A    between atoms: _378  and  _379
REMARK  149  A    between atoms: _381  and  _383
REMARK  150  A    between atoms: _383  and  _384
REMARK  151  A    between atoms: _383  and  _386
REMARK  152  A    between atoms: _386  and  _387
REMARK  153  A    between atoms: _387  and  _388
REMARK  154  A    between atoms: _388  and  _389
REMARK  155  A    between atoms: _398  and  _400
REMARK  156  A    between atoms: _400  and  _401
REMARK  157  A    between atoms: _400  and  _403
REMARK  158  A    between atoms: _403  and  _404
REMARK  159  A    between atoms: _407  and  _409
REMARK  160  A    between atoms: _409  and  _410
REMARK  161  A    between atoms: _409  and  _412
REMARK  162  A    between atoms: _412  and  _413
REMARK  163  A    between atoms: _413  and  _414
REMARK  164  A    between atoms: _414  and  _415
REMARK  165  A    between atoms: _415  and  _416
REMARK  166  A    between atoms: _420  and  _422
REMARK  167  A    between atoms: _422  and  _423
REMARK  168  A    between atoms: _425  and  _427
REMARK  169  A    between atoms: _427  and  _428
REMARK  170  A    between atoms: _431  and  _433
REMARK  171  A    between atoms: _433  and  _434
REMARK  172  A    between atoms: _433  and  _436
REMARK  173  A    between atoms: _436  and  _437
REMARK  174  A    between atoms: _442  and  _444
REMARK  175  A    between atoms: _444  and  _445
REMARK  176  A    between atoms: _448  and  _450
REMARK  177  A    between atoms: _450  and  _451
REMARK  178  A    between atoms: _454  and  _455
REMARK  179  A    between atoms: _460  and  _462
REMARK  180  A    between atoms: _462  and  _463
REMARK  181  A    between atoms: _462  and  _465
REMARK  182  A    between atoms: _465  and  _466
REMARK  183  A    between atoms: _469  and  _471
REMARK  184  A    between atoms: _471  and  _472
REMARK  185  A    between atoms: _471  and  _474
REMARK  186  A    between atoms: _474  and  _475
REMARK  187  A    between atoms: _485  and  _487
REMARK  188  A    between atoms: _487  and  _488
REMARK  189  A    between atoms: _487  and  _490
REMARK  190  A    between atoms: _490  and  _491
REMARK  191  A    between atoms: _497  and  _498
REMARK  192  A    between atoms: _503  and  _505
REMARK  193  A    between atoms: _505  and  _506
REMARK  194  A    between atoms: _505  and  _508
REMARK  195  A    between atoms: _508  and  _509
REMARK  196  A    between atoms: _514  and  _516
REMARK  197  A    between atoms: _516  and  _517
REMARK  198  A    between atoms: _516  and  _519
REMARK  199  A    between atoms: _522  and  _524
REMARK  200  A    between atoms: _524  and  _525
REMARK  201  A    between atoms: _524  and  _527
REMARK  202  A    between atoms: _527  and  _528
REMARK  203  A    between atoms: _528  and  _529
REMARK  204  A    between atoms: _535  and  _536
REMARK  205  A    between atoms: _541  and  _543
REMARK  206  A    between atoms: _543  and  _544
REMARK  207  A    between atoms: _543  and  _546
REMARK  208  A    between atoms: _546  and  _547
REMARK  209  A    between atoms: _550  and  _552
REMARK  210  A    between atoms: _552  and  _553
REMARK  211  A    between atoms: _552  and  _555
REMARK  212  A    between atoms: _555  and  _556
REMARK  213  A    between atoms: _558  and  _560
REMARK  214  A    between atoms: _560  and  _561
REMARK  215  A    between atoms: _560  and  _563
REMARK  216  A    between atoms: _563  and  _564
REMARK  217  A    between atoms: _569  and  _570
REMARK  218  A    between atoms: _572  and  _574
REMARK  219  A    between atoms: _574  and  _575
REMARK  220  A    between atoms: _574  and  _577
REMARK  221  A    between atoms: _577  and  _578
REMARK  222  A    between atoms: _588  and  _590
REMARK  223  A    between atoms: _590  and  _591
REMARK  224  A    between atoms: _593  and  _595
REMARK  225  A    between atoms: _595  and  _596
REMARK  226  A    between atoms: _599  and  _601
REMARK  227  A    between atoms: _601  and  _602
REMARK  228  A    between atoms: _601  and  _604
REMARK  229  A    between atoms: _604  and  _605
REMARK  230  A    between atoms: _610  and  _612
REMARK  231  A    between atoms: _612  and  _613
REMARK  232  A    between atoms: _616  and  _618
REMARK  233  A    between atoms: _618  and  _619
REMARK  234  A    between atoms: _622  and  _623
REMARK  235  A    between atoms: _628  and  _630
REMARK  236  A    between atoms: _630  and  _631
REMARK  237  A    between atoms: _630  and  _633
REMARK  238  A    between atoms: _633  and  _634
REMARK  239  A    between atoms: _637  and  _639
REMARK  240  A    between atoms: _639  and  _640
REMARK  241  A    between atoms: _639  and  _642
REMARK  242  A    between atoms: _642  and  _643
REMARK  243  A    between atoms: _653  and  _655
REMARK  244  A    between atoms: _655  and  _656
REMARK  245  A    between atoms: _655  and  _658
REMARK  246  A    between atoms: _658  and  _659
REMARK  247  A    between atoms: _664  and  _666
REMARK  248  A    between atoms: _666  and  _667
REMARK  249  A    between atoms: _666  and  _669
REMARK  250  A    between atoms: _669  and  _670
REMARK  251  A    between atoms: _673  and  _675
REMARK  252  A    between atoms: _675  and  _676
REMARK  253  A    between atoms: _675  and  _678
REMARK  254  A    between atoms: _678  and  _679
REMARK  255  A    between atoms: _679  and  _680
REMARK  256  A    between atoms: _683  and  _685
REMARK  257  A    between atoms: _685  and  _686
REMARK  258  A    between atoms: _685  and  _688
REMARK  259  A    between atoms: _688  and  _689
REMARK  260  A    between atoms: _689  and  _690
REMARK  261  A    between atoms: _690  and  _691
REMARK  262  A    between atoms: _691  and  _692
REMARK  263  A    between atoms: _696  and  _698
REMARK  264  A    between atoms: _698  and  _699
REMARK  265  A    between atoms: _698  and  _701
REMARK  266  A    between atoms: _701  and  _702
REMARK  267  A    between atoms: _707  and  _709
REMARK  268  A    between atoms: _709  and  _710
REMARK  269  A    between atoms: _709  and  _712
REMARK  270  A    between atoms: _712  and  _713
REMARK  271  A    between atoms: _713  and  _714
REMARK  272  A    between atoms: _714  and  _715
REMARK  273  A    between atoms: _724  and  _726
REMARK  274  A    between atoms: _726  and  _727
REMARK  275  A    between atoms: _726  and  _729
REMARK  276  A    between atoms: _729  and  _730
REMARK  277  A    between atoms: _733  and  _735
REMARK  278  A    between atoms: _735  and  _736
REMARK  279  A    between atoms: _735  and  _738
REMARK  280  A    between atoms: _741  and  _743
REMARK  281  A    between atoms: _743  and  _744
REMARK  282  A    between atoms: _743  and  _746
REMARK  283  A    between atoms: _746  and  _747
REMARK  284  A    between atoms: _747  and  _748
REMARK  285  A    between atoms: _754  and  _755
REMARK  286  A    between atoms: _760  and  _762
REMARK  287  A    between atoms: _762  and  _763
REMARK  288  A    between atoms: _762  and  _765
REMARK  289  A    between atoms: _765  and  _766
REMARK  290  A    between atoms: _769  and  _771
REMARK  291  A    between atoms: _771  and  _772
REMARK  292  A    between atoms: _771  and  _774
REMARK  293  A    between atoms: _774  and  _775
REMARK  294  A    between atoms: _775  and  _776
REMARK  295  A    between atoms: _776  and  _777
REMARK  296  A    between atoms: _786  and  _788
REMARK  297  A    between atoms: _788  and  _789
REMARK                            x       y       z     vdW  Elec       q    Type
REMARK                         _______ _______ _______ _____ _____    ______ ____
ROOT
ATOM      1  O   HOH     1      20.566  17.746 -20.661  0.00  0.00    +0.000 OA
ENDROOT
TORSDOF 0
REMARK  Name = ../refined-set-2016/3o4k/3o4k_pocket.pdb
REMARK  297 active torsions:
REMARK  status: ('A' for Active; 'I' for Inactive)
REMARK    1  A    between atoms: _1  and  _3
REMARK    2  A    between atoms: _3  and  _4
REMARK    3  A    between atoms: _3  and  _6
REMARK    4  A    between atoms: _6  and  _7
REMARK    5  A    between atoms: _7  and  _8
REMARK    6  A    between atoms: _8  and  _9
REMARK    7  A    between atoms: _18  and  _20
REMARK    8  A    between atoms: _20  and  _21
REMARK    9  A    between atoms: _20  and  _23
REMARK   10  A    between atoms: _23  and  _24
REMARK   11  A    between atoms: _29  and  _30
REMARK   12  A    between atoms: _32  and  _34
REMARK   13  A    between atoms: _34  and  _35
REMARK   14  A    between atoms: _34  and  _37
REMARK   15  A    between atoms: _37  and  _38
REMARK   16  A    between atoms: _48  and  _50
REMARK   17  A    between atoms: _50  and  _51
REMARK   18  A    between atoms: _50  and  _53
REMARK   19  A    between atoms: _53  and  _54
REMARK   20  A    between atoms: _54  and  _55
REMARK   21  A    between atoms: _55  and  _56
REMARK   22  A    between atoms: _65  and  _67
REMARK   23  A    between atoms: _67  and  _68
REMARK   24  A    between atoms: _67  and  _70
REMARK   25  A    between atoms: _70  and  _71
REMARK   26  A    between atoms: _73  and  _75
REMARK   27  A    between atoms: _75  and  _76
REMARK   28  A    between atoms: _75  and  _78
REMARK   29  A    between atoms: _78  and  _79
REMARK   30  A    between atoms: _84  and  _86
REMARK   31  A    between atoms: _86  and  _87
REMARK   32  A    between atoms: _86  and  _89
REMARK   33  A    between atoms: _89  and  _90
REMARK   34  A    between atoms: _95  and  _96
REMARK   35  A    between atoms: _98  and  _100
REMARK   36  A    between atoms: _100  and  _101
REMARK   37  A    between atoms: _100  and  _103
REMARK   38  A    between atoms: _103  and  _104
REMARK   39  A    between atoms: _104  and  _105
REMARK   40  A    between atoms: _108  and  _110
REMARK   41  A    between atoms: _110  and  _111
REMARK   42  A    between atoms: _110  and  _113
REMARK   43  A    between atoms: _116  and  _118
REMARK   44  A    between atoms: _118  and  _119
REMARK   45  A    between atoms: _118  and  _121
REMARK   46  A    between atoms: _121  and  _122
REMARK   47  A    between atoms: _122  and  _123
REMARK   48  A    between atoms: _123  and  _124
REMARK   49  A    between atoms: _124  and  _125
REMARK   50  A    between atoms: _129  and  _131
REMARK   51  A    between atoms: _131  and  _132
REMARK   52  A    between atoms: _131  and  _134
REMARK   53  A    between atoms: _134  and  _135
REMARK   54  A    between atoms: _140  and  _142
REMARK   55  A    between atoms: _142  and  _143
REMARK   56  A    between atoms: _142  and  _145
REMARK   57  A    between atoms: _145  and  _146
REMARK   58  A    between atoms: _151  and  _152
REMARK   59  A    between atoms: _154  and  _156
REMARK   60  A    between atoms: _156  and  _157
REMARK   61  A    between atoms: _156  and  _159
REMARK   62  A    between atoms: _159  and  _160
REMARK   63  A    between atoms: _160  and  _161
REMARK   64  A    between atoms: _161  and  _162
REMARK   65  A    between atoms: _171  and  _173
REMARK   66  A    between atoms: _173  and  _174
REMARK   67  A    between atoms: _178  and  _180
REMARK   68  A    between atoms: _180  and  _181
REMARK   69  A    between atoms: _180  and  _183
REMARK   70  A    between atoms: _183  and  _184
REMARK   71  A    between atoms: _186  and  _188
REMARK   72  A    between atoms: _188  and  _189
REMARK   73  A    between atoms: _188  and  _191
REMARK   74  A    between atoms: _191  and  _192
REMARK   75  A    between atoms: _192  and  _193
REMARK   76  A    between atoms: _196  and  _198
REMARK   77  A    between atoms: _198  and  _199
REMARK   78  A    between atoms: _198  and  _201
REMARK   79  A    between atoms: _201  and  _202
REMARK   80  A    between atoms: _202  and  _352
REMARK   81  A    between atoms: _203  and  _205
REMARK   82  A    between atoms: _205  and  _206
REMARK   83  A    between atoms: _205  and  _208
REMARK   84  A    between atoms: _208  and  _209
REMARK   85  A    between atoms: _209  and  _210
REMARK   86  A    between atoms: _210  and  _211
REMARK   87  A    between atoms: _220  and  _222
REMARK   88  A    between atoms: _222  and  _223
REMARK   89  A    between atoms: _222  and  _225
REMARK   90  A    between atoms: _225  and  _226
REMARK   91  A    between atoms: _226  and  _227
REMARK   92  A    between atoms: _230  and  _232
REMARK   93  A    between atoms: _232  and  _233
REMARK   94  A    between atoms: _232  and  _235
REMARK   95  A    between atoms: _235  and  _236
REMARK   96  A    between atoms: _236  and  _237
REMARK   97  A    between atoms: _237  and  _238
REMARK   98  A    between atoms: _247  and  _249
REMARK   99  A    between atoms: _249  and  _250
REMARK  100  A    between atoms: _249  and  _252
REMARK  101  A    between atoms: _252  and  _253
REMARK  102  A    between atoms: _255  and  _257
REMARK  103  A    between atoms: _257  and  _258
REMARK  104  A    between atoms: _257  and  _260
REMARK  105  A    between atoms: _260  and  _261
REMARK  106  A    between atoms: _266  and  _267
REMARK  107  A    between atoms: _269  and  _271
REMARK  108  A    between atoms: _271  and  _272
REMARK  109  A    between atoms: _271  and  _274
REMARK  110  A    between atoms: _274  and  _275
REMARK  111  A    between atoms: _280  and  _282
REMARK  112  A    between atoms: _282  and  _283
REMARK  113  A    between atoms: _282  and  _285
REMARK  114  A    between atoms: _288  and  _290
REMARK  115  A    between atoms: _290  and  _291
REMARK  116  A    between atoms: _290  and  _293
REMARK  117  A    between atoms: _293  and  _294
REMARK  118  A    between atoms: _294  and  _295
REMARK  119  A    between atoms: _295  and  _296
REMARK  120  A    between atoms: _305  and  _307
REMARK  121  A    between atoms: _307  and  _308
REMARK  122  A    between atoms: _307  and  _310
REMARK  123  A    between atoms: _310  and  _311
REMARK  124  A    between atoms: _316  and  _318
REMARK  125  A    between atoms: _318  and  _319
REMARK  126  A    between atoms: _318  and  _321
REMARK  127  A    between atoms: _321  and  _322
REMARK  128  A    between atoms: _325  and  _327
REMARK  129  A    between atoms: _327  and  _328
REMARK  130  A    between atoms: _330  and  _332
REMARK  131  A    between atoms: _332  and  _333
REMARK  132  A    between atoms: _332  and  _335
REMARK  133  A    between atoms: _335  and  _336
REMARK  134  A    between atoms: _346  and  _348
REMARK  135  A    between atoms: _348  and  _349
REMARK  136  A    between atoms: _348  and  _351
REMARK  137  A    between atoms: _351  and  _352
REMARK  138  A    between atoms: _353  and  _355
REMARK  139  A    between atoms: _355  and  _356
REMARK  140  A    between atoms: _355  and  _358
REMARK  141  A    between atoms: _358  and  _359
REMARK  142  A    between atoms: _362  and  _364
REMARK  143  A    between atoms: _364  and  _365
REMARK  144  A    between atoms: _367  and  _369
REMARK  145  A    between atoms: _369  and  _370
REMARK  146  A    between atoms: _369  and  _372
REMARK  147  A    between atoms: _372  and  _373
REMARK  148  A    between atoms: _378  and  _379
REMARK  149  A    between atoms: _381  and  _383
REMARK  150  A    between atoms: _383  and  _384
REMARK  151  A    between atoms: _383  and  _386
REMARK  152  A    between atoms: _386  and  _387
REMARK  153  A    between atoms: _387  and  _388
REMARK  154  A    between atoms: _388  and  _389
REMARK  155  A    between atoms: _398  and  _400
REMARK  156  A    between atoms: _400  and  _401
REMARK  157  A    between atoms: _400  and  _403
REMARK  158  A    between atoms: _403  and  _404
REMARK  159  A    between atoms: _407  and  _409
REMARK  160  A    between atoms: _409  and  _410
REMARK  161  A    between atoms: _409  and  _412
REMARK  162  A    between atoms: _412  and  _413
REMARK  163  A    between atoms: _413  and  _414
REMARK  164  A    between atoms: _414  and  _415
REMARK  165  A    between atoms: _415  and  _416
REMARK  166  A    between atoms: _420  and  _422
REMARK  167  A    between atoms: _422  and  _423
REMARK  168  A    between atoms: _425  and  _427
REMARK  169  A    between atoms: _427  and  _428
REMARK  170  A    between atoms: _431  and  _433
REMARK  171  A    between atoms: _433  and  _434
REMARK  172  A    between atoms: _433  and  _436
REMARK  173  A    between atoms: _436  and  _437
REMARK  174  A    between atoms: _442  and  _444
REMARK  175  A    between atoms: _444  and  _445
REMARK  176  A    between atoms: _448  and  _450
REMARK  177  A    between atoms: _450  and  _451
REMARK  178  A    between atoms: _454  and  _455
REMARK  179  A    between atoms: _460  and  _462
REMARK  180  A    between atoms: _462  and  _463
REMARK  181  A    between atoms: _462  and  _465
REMARK  182  A    between atoms: _465  and  _466
REMARK  183  A    between atoms: _469  and  _471
REMARK  184  A    between atoms: _471  and  _472
REMARK  185  A    between atoms: _471  and  _474
REMARK  186  A    between atoms: _474  and  _475
REMARK  187  A    between atoms: _485  and  _487
REMARK  188  A    between atoms: _487  and  _488
REMARK  189  A    between atoms: _487  and  _490
REMARK  190  A    between atoms: _490  and  _491
REMARK  191  A    between atoms: _497  and  _498
REMARK  192  A    between atoms: _503  and  _505
REMARK  193  A    between atoms: _505  and  _506
REMARK  194  A    between atoms: _505  and  _508
REMARK  195  A    between atoms: _508  and  _509
REMARK  196  A    between atoms: _514  and  _516
REMARK  197  A    between atoms: _516  and  _517
REMARK  198  A    between atoms: _516  and  _519
REMARK  199  A    between atoms: _522  and  _524
REMARK  200  A    between atoms: _524  and  _525
REMARK  201  A    between atoms: _524  and  _527
REMARK  202  A    between atoms: _527  and  _528
REMARK  203  A    between atoms: _528  and  _529
REMARK  204  A    between atoms: _535  and  _536
REMARK  205  A    between atoms: _541  and  _543
REMARK  206  A    between atoms: _543  and  _544
REMARK  207  A    between atoms: _543  and  _546
REMARK  208  A    between atoms: _546  and  _547
REMARK  209  A    between atoms: _550  and  _552
REMARK  210  A    between atoms: _552  and  _553
REMARK  211  A    between atoms: _552  and  _555
REMARK  212  A    between atoms: _555  and  _556
REMARK  213  A    between atoms: _558  and  _560
REMARK  214  A    between atoms: _560  and  _561
REMARK  215  A    between atoms: _560  and  _563
REMARK  216  A    between atoms: _563  and  _564
REMARK  217  A    between atoms: _569  and  _570
REMARK  218  A    between atoms: _572  and  _574
REMARK  219  A    between atoms: _574  and  _575
REMARK  220  A    between atoms: _574  and  _577
REMARK  221  A    between atoms: _577  and  _578
REMARK  222  A    between atoms: _588  and  _590
REMARK  223  A    between atoms: _590  and  _591
REMARK  224  A    between atoms: _593  and  _595
REMARK  225  A    between atoms: _595  and  _596
REMARK  226  A    between atoms: _599  and  _601
REMARK  227  A    between atoms: _601  and  _602
REMARK  228  A    between atoms: _601  and  _604
REMARK  229  A    between atoms: _604  and  _605
REMARK  230  A    between atoms: _610  and  _612
REMARK  231  A    between atoms: _612  and  _613
REMARK  232  A    between atoms: _616  and  _618
REMARK  233  A    between atoms: _618  and  _619
REMARK  234  A    between atoms: _622  and  _623
REMARK  235  A    between atoms: _628  and  _630
REMARK  236  A    between atoms: _630  and  _631
REMARK  237  A    between atoms: _630  and  _633
REMARK  238  A    between atoms: _633  and  _634
REMARK  239  A    between atoms: _637  and  _639
REMARK  240  A    between atoms: _639  and  _640
REMARK  241  A    between atoms: _639  and  _642
REMARK  242  A    between atoms: _642  and  _643
REMARK  243  A    between atoms: _653  and  _655
REMARK  244  A    between atoms: _655  and  _656
REMARK  245  A    between atoms: _655  and  _658
REMARK  246  A    between atoms: _658  and  _659
REMARK  247  A    between atoms: _664  and  _666
REMARK  248  A    between atoms: _666  and  _667
REMARK  249  A    between atoms: _666  and  _669
REMARK  250  A    between atoms: _669  and  _670
REMARK  251  A    between atoms: _673  and  _675
REMARK  252  A    between atoms: _675  and  _676
REMARK  253  A    between atoms: _675  and  _678
REMARK  254  A    between atoms: _678  and  _679
REMARK  255  A    between atoms: _679  and  _680
REMARK  256  A    between atoms: _683  and  _685
REMARK  257  A    between atoms: _685  and  _686
REMARK  258  A    between atoms: _685  and  _688
REMARK  259  A    between atoms: _688  and  _689
REMARK  260  A    between atoms: _689  and  _690
REMARK  261  A    between atoms: _690  and  _691
REMARK  262  A    between atoms: _691  and  _692
REMARK  263  A    between atoms: _696  and  _698
REMARK  264  A    between atoms: _698  and  _699
REMARK  265  A    between atoms: _698  and  _701
REMARK  266  A    between atoms: _701  and  _702
REMARK  267  A    between atoms: _707  and  _709
REMARK  268  A    between atoms: _709  and  _710
REMARK  269  A    between atoms: _709  and  _712
REMARK  270  A    between atoms: _712  and  _713
REMARK  271  A    between atoms: _713  and  _714
REMARK  272  A    between atoms: _714  and  _715
REMARK  273  A    between atoms: _724  and  _726
REMARK  274  A    between atoms: _726  and  _727
REMARK  275  A    between atoms: _726  and  _729
REMARK  276  A    between atoms: _729  and  _730
REMARK  277  A    between atoms: _733  and  _735
REMARK  278  A    between atoms: _735  and  _736
REMARK  279  A    between atoms: _735  and  _738
REMARK  280  A    between atoms: _741  and  _743
REMARK  281  A    between atoms: _743  and  _744
REMARK  282  A    between atoms: _743  and  _746
REMARK  283  A    between atoms: _746  and  _747
REMARK  284  A    between atoms: _747  and  _748
REMARK  285  A    between atoms: _754  and  _755
REMARK  286  A    between atoms: _760  and  _762
REMARK  287  A    between atoms: _762  and  _763
REMARK  288  A    between atoms: _762  and  _765
REMARK  289  A    between atoms: _765  and  _766
REMARK  290  A    between atoms: _769  and  _771
REMARK  291  A    between atoms: _771  and  _772
REMARK  292  A    between atoms: _771  and  _774
REMARK  293  A    between atoms: _774  and  _775
REMARK  294  A    between atoms: _775  and  _776
REMARK  295  A    between atoms: _776  and  _777
REMARK  296  A    between atoms: _786  and  _788
REMARK  297  A    between atoms: _788  and  _789
REMARK                            x       y       z     vdW  Elec       q    Type
REMARK                         _______ _______ _______ _____ _____    ______ ____
ROOT
ATOM      1  O   HOH     1      21.653  12.593 -26.741  0.00  0.00    +0.000 OA
ENDROOT
TORSDOF 0
REMARK  Name = ../refined-set-2016/3o4k/3o4k_pocket.pdb
REMARK  297 active torsions:
REMARK  status: ('A' for Active; 'I' for Inactive)
REMARK    1  A    between atoms: _1  and  _3
REMARK    2  A    between atoms: _3  and  _4
REMARK    3  A    between atoms: _3  and  _6
REMARK    4  A    between atoms: _6  and  _7
REMARK    5  A    between atoms: _7  and  _8
REMARK    6  A    between atoms: _8  and  _9
REMARK    7  A    between atoms: _18  and  _20
REMARK    8  A    between atoms: _20  and  _21
REMARK    9  A    between atoms: _20  and  _23
REMARK   10  A    between atoms: _23  and  _24
REMARK   11  A    between atoms: _29  and  _30
REMARK   12  A    between atoms: _32  and  _34
REMARK   13  A    between atoms: _34  and  _35
REMARK   14  A    between atoms: _34  and  _37
REMARK   15  A    between atoms: _37  and  _38
REMARK   16  A    between atoms: _48  and  _50
REMARK   17  A    between atoms: _50  and  _51
REMARK   18  A    between atoms: _50  and  _53
REMARK   19  A    between atoms: _53  and  _54
REMARK   20  A    between atoms: _54  and  _55
REMARK   21  A    between atoms: _55  and  _56
REMARK   22  A    between atoms: _65  and  _67
REMARK   23  A    between atoms: _67  and  _68
REMARK   24  A    between atoms: _67  and  _70
REMARK   25  A    between atoms: _70  and  _71
REMARK   26  A    between atoms: _73  and  _75
REMARK   27  A    between atoms: _75  and  _76
REMARK   28  A    between atoms: _75  and  _78
REMARK   29  A    between atoms: _78  and  _79
REMARK   30  A    between atoms: _84  and  _86
REMARK   31  A    between atoms: _86  and  _87
REMARK   32  A    between atoms: _86  and  _89
REMARK   33  A    between atoms: _89  and  _90
REMARK   34  A    between atoms: _95  and  _96
REMARK   35  A    between atoms: _98  and  _100
REMARK   36  A    between atoms: _100  and  _101
REMARK   37  A    between atoms: _100  and  _103
REMARK   38  A    between atoms: _103  and  _104
REMARK   39  A    between atoms: _104  and  _105
REMARK   40  A    between atoms: _108  and  _110
REMARK   41  A    between atoms: _110  and  _111
REMARK   42  A    between atoms: _110  and  _113
REMARK   43  A    between atoms: _116  and  _118
REMARK   44  A    between atoms: _118  and  _119
REMARK   45  A    between atoms: _118  and  _121
REMARK   46  A    between atoms: _121  and  _122
REMARK   47  A    between atoms: _122  and  _123
REMARK   48  A    between atoms: _123  and  _124
REMARK   49  A    between atoms: _124  and  _125
REMARK   50  A    between atoms: _129  and  _131
REMARK   51  A    between atoms: _131  and  _132
REMARK   52  A    between atoms: _131  and  _134
REMARK   53  A    between atoms: _134  and  _135
REMARK   54  A    between atoms: _140  and  _142
REMARK   55  A    between atoms: _142  and  _143
REMARK   56  A    between atoms: _142  and  _145
REMARK   57  A    between atoms: _145  and  _146
REMARK   58  A    between atoms: _151  and  _152
REMARK   59  A    between atoms: _154  and  _156
REMARK   60  A    between atoms: _156  and  _157
REMARK   61  A    between atoms: _156  and  _159
REMARK   62  A    between atoms: _159  and  _160
REMARK   63  A    between atoms: _160  and  _161
REMARK   64  A    between atoms: _161  and  _162
REMARK   65  A    between atoms: _171  and  _173
REMARK   66  A    between atoms: _173  and  _174
REMARK   67  A    between atoms: _178  and  _180
REMARK   68  A    between atoms: _180  and  _181
REMARK   69  A    between atoms: _180  and  _183
REMARK   70  A    between atoms: _183  and  _184
REMARK   71  A    between atoms: _186  and  _188
REMARK   72  A    between atoms: _188  and  _189
REMARK   73  A    between atoms: _188  and  _191
REMARK   74  A    between atoms: _191  and  _192
REMARK   75  A    between atoms: _192  and  _193
REMARK   76  A    between atoms: _196  and  _198
REMARK   77  A    between atoms: _198  and  _199
REMARK   78  A    between atoms: _198  and  _201
REMARK   79  A    between atoms: _201  and  _202
REMARK   80  A    between atoms: _202  and  _352
REMARK   81  A    between atoms: _203  and  _205
REMARK   82  A    between atoms: _205  and  _206
REMARK   83  A    between atoms: _205  and  _208
REMARK   84  A    between atoms: _208  and  _209
REMARK   85  A    between atoms: _209  and  _210
REMARK   86  A    between atoms: _210  and  _211
REMARK   87  A    between atoms: _220  and  _222
REMARK   88  A    between atoms: _222  and  _223
REMARK   89  A    between atoms: _222  and  _225
REMARK   90  A    between atoms: _225  and  _226
REMARK   91  A    between atoms: _226  and  _227
REMARK   92  A    between atoms: _230  and  _232
REMARK   93  A    between atoms: _232  and  _233
REMARK   94  A    between atoms: _232  and  _235
REMARK   95  A    between atoms: _235  and  _236
REMARK   96  A    between atoms: _236  and  _237
REMARK   97  A    between atoms: _237  and  _238
REMARK   98  A    between atoms: _247  and  _249
REMARK   99  A    between atoms: _249  and  _250
REMARK  100  A    between atoms: _249  and  _252
REMARK  101  A    between atoms: _252  and  _253
REMARK  102  A    between atoms: _255  and  _257
REMARK  103  A    between atoms: _257  and  _258
REMARK  104  A    between atoms: _257  and  _260
REMARK  105  A    between atoms: _260  and  _261
REMARK  106  A    between atoms: _266  and  _267
REMARK  107  A    between atoms: _269  and  _271
REMARK  108  A    between atoms: _271  and  _272
REMARK  109  A    between atoms: _271  and  _274
REMARK  110  A    between atoms: _274  and  _275
REMARK  111  A    between atoms: _280  and  _282
REMARK  112  A    between atoms: _282  and  _283
REMARK  113  A    between atoms: _282  and  _285
REMARK  114  A    between atoms: _288  and  _290
REMARK  115  A    between atoms: _290  and  _291
REMARK  116  A    between atoms: _290  and  _293
REMARK  117  A    between atoms: _293  and  _294
REMARK  118  A    between atoms: _294  and  _295
REMARK  119  A    between atoms: _295  and  _296
REMARK  120  A    between atoms: _305  and  _307
REMARK  121  A    between atoms: _307  and  _308
REMARK  122  A    between atoms: _307  and  _310
REMARK  123  A    between atoms: _310  and  _311
REMARK  124  A    between atoms: _316  and  _318
REMARK  125  A    between atoms: _318  and  _319
REMARK  126  A    between atoms: _318  and  _321
REMARK  127  A    between atoms: _321  and  _322
REMARK  128  A    between atoms: _325  and  _327
REMARK  129  A    between atoms: _327  and  _328
REMARK  130  A    between atoms: _330  and  _332
REMARK  131  A    between atoms: _332  and  _333
REMARK  132  A    between atoms: _332  and  _335
REMARK  133  A    between atoms: _335  and  _336
REMARK  134  A    between atoms: _346  and  _348
REMARK  135  A    between atoms: _348  and  _349
REMARK  136  A    between atoms: _348  and  _351
REMARK  137  A    between atoms: _351  and  _352
REMARK  138  A    between atoms: _353  and  _355
REMARK  139  A    between atoms: _355  and  _356
REMARK  140  A    between atoms: _355  and  _358
REMARK  141  A    between atoms: _358  and  _359
REMARK  142  A    between atoms: _362  and  _364
REMARK  143  A    between atoms: _364  and  _365
REMARK  144  A    between atoms: _367  and  _369
REMARK  145  A    between atoms: _369  and  _370
REMARK  146  A    between atoms: _369  and  _372
REMARK  147  A    between atoms: _372  and  _373
REMARK  148  A    between atoms: _378  and  _379
REMARK  149  A    between atoms: _381  and  _383
REMARK  150  A    between atoms: _383  and  _384
REMARK  151  A    between atoms: _383  and  _386
REMARK  152  A    between atoms: _386  and  _387
REMARK  153  A    between atoms: _387  and  _388
REMARK  154  A    between atoms: _388  and  _389
REMARK  155  A    between atoms: _398  and  _400
REMARK  156  A    between atoms: _400  and  _401
REMARK  157  A    between atoms: _400  and  _403
REMARK  158  A    between atoms: _403  and  _404
REMARK  159  A    between atoms: _407  and  _409
REMARK  160  A    between atoms: _409  and  _410
REMARK  161  A    between atoms: _409  and  _412
REMARK  162  A    between atoms: _412  and  _413
REMARK  163  A    between atoms: _413  and  _414
REMARK  164  A    between atoms: _414  and  _415
REMARK  165  A    between atoms: _415  and  _416
REMARK  166  A    between atoms: _420  and  _422
REMARK  167  A    between atoms: _422  and  _423
REMARK  168  A    between atoms: _425  and  _427
REMARK  169  A    between atoms: _427  and  _428
REMARK  170  A    between atoms: _431  and  _433
REMARK  171  A    between atoms: _433  and  _434
REMARK  172  A    between atoms: _433  and  _436
REMARK  173  A    between atoms: _436  and  _437
REMARK  174  A    between atoms: _442  and  _444
REMARK  175  A    between atoms: _444  and  _445
REMARK  176  A    between atoms: _448  and  _450
REMARK  177  A    between atoms: _450  and  _451
REMARK  178  A    between atoms: _454  and  _455
REMARK  179  A    between atoms: _460  and  _462
REMARK  180  A    between atoms: _462  and  _463
REMARK  181  A    between atoms: _462  and  _465
REMARK  182  A    between atoms: _465  and  _466
REMARK  183  A    between atoms: _469  and  _471
REMARK  184  A    between atoms: _471  and  _472
REMARK  185  A    between atoms: _471  and  _474
REMARK  186  A    between atoms: _474  and  _475
REMARK  187  A    between atoms: _485  and  _487
REMARK  188  A    between atoms: _487  and  _488
REMARK  189  A    between atoms: _487  and  _490
REMARK  190  A    between atoms: _490  and  _491
REMARK  191  A    between atoms: _497  and  _498
REMARK  192  A    between atoms: _503  and  _505
REMARK  193  A    between atoms: _505  and  _506
REMARK  194  A    between atoms: _505  and  _508
REMARK  195  A    between atoms: _508  and  _509
REMARK  196  A    between atoms: _514  and  _516
REMARK  197  A    between atoms: _516  and  _517
REMARK  198  A    between atoms: _516  and  _519
REMARK  199  A    between atoms: _522  and  _524
REMARK  200  A    between atoms: _524  and  _525
REMARK  201  A    between atoms: _524  and  _527
REMARK  202  A    between atoms: _527  and  _528
REMARK  203  A    between atoms: _528  and  _529
REMARK  204  A    between atoms: _535  and  _536
REMARK  205  A    between atoms: _541  and  _543
REMARK  206  A    between atoms: _543  and  _544
REMARK  207  A    between atoms: _543  and  _546
REMARK  208  A    between atoms: _546  and  _547
REMARK  209  A    between atoms: _550  and  _552
REMARK  210  A    between atoms: _552  and  _553
REMARK  211  A    between atoms: _552  and  _555
REMARK  212  A    between atoms: _555  and  _556
REMARK  213  A    between atoms: _558  and  _560
REMARK  214  A    between atoms: _560  and  _561
REMARK  215  A    between atoms: _560  and  _563
REMARK  216  A    between atoms: _563  and  _564
REMARK  217  A    between atoms: _569  and  _570
REMARK  218  A    between atoms: _572  and  _574
REMARK  219  A    between atoms: _574  and  _575
REMARK  220  A    between atoms: _574  and  _577
REMARK  221  A    between atoms: _577  and  _578
REMARK  222  A    between atoms: _588  and  _590
REMARK  223  A    between atoms: _590  and  _591
REMARK  224  A    between atoms: _593  and  _595
REMARK  225  A    between atoms: _595  and  _596
REMARK  226  A    between atoms: _599  and  _601
REMARK  227  A    between atoms: _601  and  _602
REMARK  228  A    between atoms: _601  and  _604
REMARK  229  A    between atoms: _604  and  _605
REMARK  230  A    between atoms: _610  and  _612
REMARK  231  A    between atoms: _612  and  _613
REMARK  232  A    between atoms: _616  and  _618
REMARK  233  A    between atoms: _618  and  _619
REMARK  234  A    between atoms: _622  and  _623
REMARK  235  A    between atoms: _628  and  _630
REMARK  236  A    between atoms: _630  and  _631
REMARK  237  A    between atoms: _630  and  _633
REMARK  238  A    between atoms: _633  and  _634
REMARK  239  A    between atoms: _637  and  _639
REMARK  240  A    between atoms: _639  and  _640
REMARK  241  A    between atoms: _639  and  _642
REMARK  242  A    between atoms: _642  and  _643
REMARK  243  A    between atoms: _653  and  _655
REMARK  244  A    between atoms: _655  and  _656
REMARK  245  A    between atoms: _655  and  _658
REMARK  246  A    between atoms: _658  and  _659
REMARK  247  A    between atoms: _664  and  _666
REMARK  248  A    between atoms: _666  and  _667
REMARK  249  A    between atoms: _666  and  _669
REMARK  250  A    between atoms: _669  and  _670
REMARK  251  A    between atoms: _673  and  _675
REMARK  252  A    between atoms: _675  and  _676
REMARK  253  A    between atoms: _675  and  _678
REMARK  254  A    between atoms: _678  and  _679
REMARK  255  A    between atoms: _679  and  _680
REMARK  256  A    between atoms: _683  and  _685
REMARK  257  A    between atoms: _685  and  _686
REMARK  258  A    between atoms: _685  and  _688
REMARK  259  A    between atoms: _688  and  _689
REMARK  260  A    between atoms: _689  and  _690
REMARK  261  A    between atoms: _690  and  _691
REMARK  262  A    between atoms: _691  and  _692
REMARK  263  A    between atoms: _696  and  _698
REMARK  264  A    between atoms: _698  and  _699
REMARK  265  A    between atoms: _698  and  _701
REMARK  266  A    between atoms: _701  and  _702
REMARK  267  A    between atoms: _707  and  _709
REMARK  268  A    between atoms: _709  and  _710
REMARK  269  A    between atoms: _709  and  _712
REMARK  270  A    between atoms: _712  and  _713
REMARK  271  A    between atoms: _713  and  _714
REMARK  272  A    between atoms: _714  and  _715
REMARK  273  A    between atoms: _724  and  _726
REMARK  274  A    between atoms: _726  and  _727
REMARK  275  A    between atoms: _726  and  _729
REMARK  276  A    between atoms: _729  and  _730
REMARK  277  A    between atoms: _733  and  _735
REMARK  278  A    between atoms: _735  and  _736
REMARK  279  A    between atoms: _735  and  _738
REMARK  280  A    between atoms: _741  and  _743
REMARK  281  A    between atoms: _743  and  _744
REMARK  282  A    between atoms: _743  and  _746
REMARK  283  A    between atoms: _746  and  _747
REMARK  284  A    between atoms: _747  and  _748
REMARK  285  A    between atoms: _754  and  _755
REMARK  286  A    between atoms: _760  and  _762
REMARK  287  A    between atoms: _762  and  _763
REMARK  288  A    between atoms: _762  and  _765
REMARK  289  A    between atoms: _765  and  _766
REMARK  290  A    between atoms: _769  and  _771
REMARK  291  A    between atoms: _771  and  _772
REMARK  292  A    between atoms: _771  and  _774
REMARK  293  A    between atoms: _774  and  _775
REMARK  294  A    between atoms: _775  and  _776
REMARK  295  A    between atoms: _776  and  _777
REMARK  296  A    between atoms: _786  and  _788
REMARK  297  A    between atoms: _788  and  _789
REMARK                            x       y       z     vdW  Elec       q    Type
REMARK                         _______ _______ _______ _____ _____    ______ ____
ROOT
ATOM      1  O   HOH     1      20.375  26.870 -14.171  0.00  0.00    +0.000 OA
ENDROOT
TORSDOF 0
REMARK  Name = ../refined-set-2016/3o4k/3o4k_pocket.pdb
REMARK  297 active torsions:
REMARK  status: ('A' for Active; 'I' for Inactive)
REMARK    1  A    between atoms: _1  and  _3
REMARK    2  A    between atoms: _3  and  _4
REMARK    3  A    between atoms: _3  and  _6
REMARK    4  A    between atoms: _6  and  _7
REMARK    5  A    between atoms: _7  and  _8
REMARK    6  A    between atoms: _8  and  _9
REMARK    7  A    between atoms: _18  and  _20
REMARK    8  A    between atoms: _20  and  _21
REMARK    9  A    between atoms: _20  and  _23
REMARK   10  A    between atoms: _23  and  _24
REMARK   11  A    between atoms: _29  and  _30
REMARK   12  A    between atoms: _32  and  _34
REMARK   13  A    between atoms: _34  and  _35
REMARK   14  A    between atoms: _34  and  _37
REMARK   15  A    between atoms: _37  and  _38
REMARK   16  A    between atoms: _48  and  _50
REMARK   17  A    between atoms: _50  and  _51
REMARK   18  A    between atoms: _50  and  _53
REMARK   19  A    between atoms: _53  and  _54
REMARK   20  A    between atoms: _54  and  _55
REMARK   21  A    between atoms: _55  and  _56
REMARK   22  A    between atoms: _65  and  _67
REMARK   23  A    between atoms: _67  and  _68
REMARK   24  A    between atoms: _67  and  _70
REMARK   25  A    between atoms: _70  and  _71
REMARK   26  A    between atoms: _73  and  _75
REMARK   27  A    between atoms: _75  and  _76
REMARK   28  A    between atoms: _75  and  _78
REMARK   29  A    between atoms: _78  and  _79
REMARK   30  A    between atoms: _84  and  _86
REMARK   31  A    between atoms: _86  and  _87
REMARK   32  A    between atoms: _86  and  _89
REMARK   33  A    between atoms: _89  and  _90
REMARK   34  A    between atoms: _95  and  _96
REMARK   35  A    between atoms: _98  and  _100
REMARK   36  A    between atoms: _100  and  _101
REMARK   37  A    between atoms: _100  and  _103
REMARK   38  A    between atoms: _103  and  _104
REMARK   39  A    between atoms: _104  and  _105
REMARK   40  A    between atoms: _108  and  _110
REMARK   41  A    between atoms: _110  and  _111
REMARK   42  A    between atoms: _110  and  _113
REMARK   43  A    between atoms: _116  and  _118
REMARK   44  A    between atoms: _118  and  _119
REMARK   45  A    between atoms: _118  and  _121
REMARK   46  A    between atoms: _121  and  _122
REMARK   47  A    between atoms: _122  and  _123
REMARK   48  A    between atoms: _123  and  _124
REMARK   49  A    between atoms: _124  and  _125
REMARK   50  A    between atoms: _129  and  _131
REMARK   51  A    between atoms: _131  and  _132
REMARK   52  A    between atoms: _131  and  _134
REMARK   53  A    between atoms: _134  and  _135
REMARK   54  A    between atoms: _140  and  _142
REMARK   55  A    between atoms: _142  and  _143
REMARK   56  A    between atoms: _142  and  _145
REMARK   57  A    between atoms: _145  and  _146
REMARK   58  A    between atoms: _151  and  _152
REMARK   59  A    between atoms: _154  and  _156
REMARK   60  A    between atoms: _156  and  _157
REMARK   61  A    between atoms: _156  and  _159
REMARK   62  A    between atoms: _159  and  _160
REMARK   63  A    between atoms: _160  and  _161
REMARK   64  A    between atoms: _161  and  _162
REMARK   65  A    between atoms: _171  and  _173
REMARK   66  A    between atoms: _173  and  _174
REMARK   67  A    between atoms: _178  and  _180
REMARK   68  A    between atoms: _180  and  _181
REMARK   69  A    between atoms: _180  and  _183
REMARK   70  A    between atoms: _183  and  _184
REMARK   71  A    between atoms: _186  and  _188
REMARK   72  A    between atoms: _188  and  _189
REMARK   73  A    between atoms: _188  and  _191
REMARK   74  A    between atoms: _191  and  _192
REMARK   75  A    between atoms: _192  and  _193
REMARK   76  A    between atoms: _196  and  _198
REMARK   77  A    between atoms: _198  and  _199
REMARK   78  A    between atoms: _198  and  _201
REMARK   79  A    between atoms: _201  and  _202
REMARK   80  A    between atoms: _202  and  _352
REMARK   81  A    between atoms: _203  and  _205
REMARK   82  A    between atoms: _205  and  _206
REMARK   83  A    between atoms: _205  and  _208
REMARK   84  A    between atoms: _208  and  _209
REMARK   85  A    between atoms: _209  and  _210
REMARK   86  A    between atoms: _210  and  _211
REMARK   87  A    between atoms: _220  and  _222
REMARK   88  A    between atoms: _222  and  _223
REMARK   89  A    between atoms: _222  and  _225
REMARK   90  A    between atoms: _225  and  _226
REMARK   91  A    between atoms: _226  and  _227
REMARK   92  A    between atoms: _230  and  _232
REMARK   93  A    between atoms: _232  and  _233
REMARK   94  A    between atoms: _232  and  _235
REMARK   95  A    between atoms: _235  and  _236
REMARK   96  A    between atoms: _236  and  _237
REMARK   97  A    between atoms: _237  and  _238
REMARK   98  A    between atoms: _247  and  _249
REMARK   99  A    between atoms: _249  and  _250
REMARK  100  A    between atoms: _249  and  _252
REMARK  101  A    between atoms: _252  and  _253
REMARK  102  A    between atoms: _255  and  _257
REMARK  103  A    between atoms: _257  and  _258
REMARK  104  A    between atoms: _257  and  _260
REMARK  105  A    between atoms: _260  and  _261
REMARK  106  A    between atoms: _266  and  _267
REMARK  107  A    between atoms: _269  and  _271
REMARK  108  A    between atoms: _271  and  _272
REMARK  109  A    between atoms: _271  and  _274
REMARK  110  A    between atoms: _274  and  _275
REMARK  111  A    between atoms: _280  and  _282
REMARK  112  A    between atoms: _282  and  _283
REMARK  113  A    between atoms: _282  and  _285
REMARK  114  A    between atoms: _288  and  _290
REMARK  115  A    between atoms: _290  and  _291
REMARK  116  A    between atoms: _290  and  _293
REMARK  117  A    between atoms: _293  and  _294
REMARK  118  A    between atoms: _294  and  _295
REMARK  119  A    between atoms: _295  and  _296
REMARK  120  A    between atoms: _305  and  _307
REMARK  121  A    between atoms: _307  and  _308
REMARK  122  A    between atoms: _307  and  _310
REMARK  123  A    between atoms: _310  and  _311
REMARK  124  A    between atoms: _316  and  _318
REMARK  125  A    between atoms: _318  and  _319
REMARK  126  A    between atoms: _318  and  _321
REMARK  127  A    between atoms: _321  and  _322
REMARK  128  A    between atoms: _325  and  _327
REMARK  129  A    between atoms: _327  and  _328
REMARK  130  A    between atoms: _330  and  _332
REMARK  131  A    between atoms: _332  and  _333
REMARK  132  A    between atoms: _332  and  _335
REMARK  133  A    between atoms: _335  and  _336
REMARK  134  A    between atoms: _346  and  _348
REMARK  135  A    between atoms: _348  and  _349
REMARK  136  A    between atoms: _348  and  _351
REMARK  137  A    between atoms: _351  and  _352
REMARK  138  A    between atoms: _353  and  _355
REMARK  139  A    between atoms: _355  and  _356
REMARK  140  A    between atoms: _355  and  _358
REMARK  141  A    between atoms: _358  and  _359
REMARK  142  A    between atoms: _362  and  _364
REMARK  143  A    between atoms: _364  and  _365
REMARK  144  A    between atoms: _367  and  _369
REMARK  145  A    between atoms: _369  and  _370
REMARK  146  A    between atoms: _369  and  _372
REMARK  147  A    between atoms: _372  and  _373
REMARK  148  A    between atoms: _378  and  _379
REMARK  149  A    between atoms: _381  and  _383
REMARK  150  A    between atoms: _383  and  _384
REMARK  151  A    between atoms: _383  and  _386
REMARK  152  A    between atoms: _386  and  _387
REMARK  153  A    between atoms: _387  and  _388
REMARK  154  A    between atoms: _388  and  _389
REMARK  155  A    between atoms: _398  and  _400
REMARK  156  A    between atoms: _400  and  _401
REMARK  157  A    between atoms: _400  and  _403
REMARK  158  A    between atoms: _403  and  _404
REMARK  159  A    between atoms: _407  and  _409
REMARK  160  A    between atoms: _409  and  _410
REMARK  161  A    between atoms: _409  and  _412
REMARK  162  A    between atoms: _412  and  _413
REMARK  163  A    between atoms: _413  and  _414
REMARK  164  A    between atoms: _414  and  _415
REMARK  165  A    between atoms: _415  and  _416
REMARK  166  A    between atoms: _420  and  _422
REMARK  167  A    between atoms: _422  and  _423
REMARK  168  A    between atoms: _425  and  _427
REMARK  169  A    between atoms: _427  and  _428
REMARK  170  A    between atoms: _431  and  _433
REMARK  171  A    between atoms: _433  and  _434
REMARK  172  A    between atoms: _433  and  _436
REMARK  173  A    between atoms: _436  and  _437
REMARK  174  A    between atoms: _442  and  _444
REMARK  175  A    between atoms: _444  and  _445
REMARK  176  A    between atoms: _448  and  _450
REMARK  177  A    between atoms: _450  and  _451
REMARK  178  A    between atoms: _454  and  _455
REMARK  179  A    between atoms: _460  and  _462
REMARK  180  A    between atoms: _462  and  _463
REMARK  181  A    between atoms: _462  and  _465
REMARK  182  A    between atoms: _465  and  _466
REMARK  183  A    between atoms: _469  and  _471
REMARK  184  A    between atoms: _471  and  _472
REMARK  185  A    between atoms: _471  and  _474
REMARK  186  A    between atoms: _474  and  _475
REMARK  187  A    between atoms: _485  and  _487
REMARK  188  A    between atoms: _487  and  _488
REMARK  189  A    between atoms: _487  and  _490
REMARK  190  A    between atoms: _490  and  _491
REMARK  191  A    between atoms: _497  and  _498
REMARK  192  A    between atoms: _503  and  _505
REMARK  193  A    between atoms: _505  and  _506
REMARK  194  A    between atoms: _505  and  _508
REMARK  195  A    between atoms: _508  and  _509
REMARK  196  A    between atoms: _514  and  _516
REMARK  197  A    between atoms: _516  and  _517
REMARK  198  A    between atoms: _516  and  _519
REMARK  199  A    between atoms: _522  and  _524
REMARK  200  A    between atoms: _524  and  _525
REMARK  201  A    between atoms: _524  and  _527
REMARK  202  A    between atoms: _527  and  _528
REMARK  203  A    between atoms: _528  and  _529
REMARK  204  A    between atoms: _535  and  _536
REMARK  205  A    between atoms: _541  and  _543
REMARK  206  A    between atoms: _543  and  _544
REMARK  207  A    between atoms: _543  and  _546
REMARK  208  A    between atoms: _546  and  _547
REMARK  209  A    between atoms: _550  and  _552
REMARK  210  A    between atoms: _552  and  _553
REMARK  211  A    between atoms: _552  and  _555
REMARK  212  A    between atoms: _555  and  _556
REMARK  213  A    between atoms: _558  and  _560
REMARK  214  A    between atoms: _560  and  _561
REMARK  215  A    between atoms: _560  and  _563
REMARK  216  A    between atoms: _563  and  _564
REMARK  217  A    between atoms: _569  and  _570
REMARK  218  A    between atoms: _572  and  _574
REMARK  219  A    between atoms: _574  and  _575
REMARK  220  A    between atoms: _574  and  _577
REMARK  221  A    between atoms: _577  and  _578
REMARK  222  A    between atoms: _588  and  _590
REMARK  223  A    between atoms: _590  and  _591
REMARK  224  A    between atoms: _593  and  _595
REMARK  225  A    between atoms: _595  and  _596
REMARK  226  A    between atoms: _599  and  _601
REMARK  227  A    between atoms: _601  and  _602
REMARK  228  A    between atoms: _601  and  _604
REMARK  229  A    between atoms: _604  and  _605
REMARK  230  A    between atoms: _610  and  _612
REMARK  231  A    between atoms: _612  and  _613
REMARK  232  A    between atoms: _616  and  _618
REMARK  233  A    between atoms: _618  and  _619
REMARK  234  A    between atoms: _622  and  _623
REMARK  235  A    between atoms: _628  and  _630
REMARK  236  A    between atoms: _630  and  _631
REMARK  237  A    between atoms: _630  and  _633
REMARK  238  A    between atoms: _633  and  _634
REMARK  239  A    between atoms: _637  and  _639
REMARK  240  A    between atoms: _639  and  _640
REMARK  241  A    between atoms: _639  and  _642
REMARK  242  A    between atoms: _642  and  _643
REMARK  243  A    between atoms: _653  and  _655
REMARK  244  A    between atoms: _655  and  _656
REMARK  245  A    between atoms: _655  and  _658
REMARK  246  A    between atoms: _658  and  _659
REMARK  247  A    between atoms: _664  and  _666
REMARK  248  A    between atoms: _666  and  _667
REMARK  249  A    between atoms: _666  and  _669
REMARK  250  A    between atoms: _669  and  _670
REMARK  251  A    between atoms: _673  and  _675
REMARK  252  A    between atoms: _675  and  _676
REMARK  253  A    between atoms: _675  and  _678
REMARK  254  A    between atoms: _678  and  _679
REMARK  255  A    between atoms: _679  and  _680
REMARK  256  A    between atoms: _683  and  _685
REMARK  257  A    between atoms: _685  and  _686
REMARK  258  A    between atoms: _685  and  _688
REMARK  259  A    between atoms: _688  and  _689
REMARK  260  A    between atoms: _689  and  _690
REMARK  261  A    between atoms: _690  and  _691
REMARK  262  A    between atoms: _691  and  _692
REMARK  263  A    between atoms: _696  and  _698
REMARK  264  A    between atoms: _698  and  _699
REMARK  265  A    between atoms: _698  and  _701
REMARK  266  A    between atoms: _701  and  _702
REMARK  267  A    between atoms: _707  and  _709
REMARK  268  A    between atoms: _709  and  _710
REMARK  269  A    between atoms: _709  and  _712
REMARK  270  A    between atoms: _712  and  _713
REMARK  271  A    between atoms: _713  and  _714
REMARK  272  A    between atoms: _714  and  _715
REMARK  273  A    between atoms: _724  and  _726
REMARK  274  A    between atoms: _726  and  _727
REMARK  275  A    between atoms: _726  and  _729
REMARK  276  A    between atoms: _729  and  _730
REMARK  277  A    between atoms: _733  and  _735
REMARK  278  A    between atoms: _735  and  _736
REMARK  279  A    between atoms: _735  and  _738
REMARK  280  A    between atoms: _741  and  _743
REMARK  281  A    between atoms: _743  and  _744
REMARK  282  A    between atoms: _743  and  _746
REMARK  283  A    between atoms: _746  and  _747
REMARK  284  A    between atoms: _747  and  _748
REMARK  285  A    between atoms: _754  and  _755
REMARK  286  A    between atoms: _760  and  _762
REMARK  287  A    between atoms: _762  and  _763
REMARK  288  A    between atoms: _762  and  _765
REMARK  289  A    between atoms: _765  and  _766
REMARK  290  A    between atoms: _769  and  _771
REMARK  291  A    between atoms: _771  and  _772
REMARK  292  A    between atoms: _771  and  _774
REMARK  293  A    between atoms: _774  and  _775
REMARK  294  A    between atoms: _775  and  _776
REMARK  295  A    between atoms: _776  and  _777
REMARK  296  A    between atoms: _786  and  _788
REMARK  297  A    between atoms: _788  and  _789
REMARK                            x       y       z     vdW  Elec       q    Type
REMARK                         _______ _______ _______ _____ _____    ______ ____
ROOT
ATOM      1  O   HOH     1      16.138  15.812 -21.920  0.00  0.00    +0.000 OA
ENDROOT
TORSDOF 0
REMARK  Name = ../refined-set-2016/3o4k/3o4k_pocket.pdb
REMARK  297 active torsions:
REMARK  status: ('A' for Active; 'I' for Inactive)
REMARK    1  A    between atoms: _1  and  _3
REMARK    2  A    between atoms: _3  and  _4
REMARK    3  A    between atoms: _3  and  _6
REMARK    4  A    between atoms: _6  and  _7
REMARK    5  A    between atoms: _7  and  _8
REMARK    6  A    between atoms: _8  and  _9
REMARK    7  A    between atoms: _18  and  _20
REMARK    8  A    between atoms: _20  and  _21
REMARK    9  A    between atoms: _20  and  _23
REMARK   10  A    between atoms: _23  and  _24
REMARK   11  A    between atoms: _29  and  _30
REMARK   12  A    between atoms: _32  and  _34
REMARK   13  A    between atoms: _34  and  _35
REMARK   14  A    between atoms: _34  and  _37
REMARK   15  A    between atoms: _37  and  _38
REMARK   16  A    between atoms: _48  and  _50
REMARK   17  A    between atoms: _50  and  _51
REMARK   18  A    between atoms: _50  and  _53
REMARK   19  A    between atoms: _53  and  _54
REMARK   20  A    between atoms: _54  and  _55
REMARK   21  A    between atoms: _55  and  _56
REMARK   22  A    between atoms: _65  and  _67
REMARK   23  A    between atoms: _67  and  _68
REMARK   24  A    between atoms: _67  and  _70
REMARK   25  A    between atoms: _70  and  _71
REMARK   26  A    between atoms: _73  and  _75
REMARK   27  A    between atoms: _75  and  _76
REMARK   28  A    between atoms: _75  and  _78
REMARK   29  A    between atoms: _78  and  _79
REMARK   30  A    between atoms: _84  and  _86
REMARK   31  A    between atoms: _86  and  _87
REMARK   32  A    between atoms: _86  and  _89
REMARK   33  A    between atoms: _89  and  _90
REMARK   34  A    between atoms: _95  and  _96
REMARK   35  A    between atoms: _98  and  _100
REMARK   36  A    between atoms: _100  and  _101
REMARK   37  A    between atoms: _100  and  _103
REMARK   38  A    between atoms: _103  and  _104
REMARK   39  A    between atoms: _104  and  _105
REMARK   40  A    between atoms: _108  and  _110
REMARK   41  A    between atoms: _110  and  _111
REMARK   42  A    between atoms: _110  and  _113
REMARK   43  A    between atoms: _116  and  _118
REMARK   44  A    between atoms: _118  and  _119
REMARK   45  A    between atoms: _118  and  _121
REMARK   46  A    between atoms: _121  and  _122
REMARK   47  A    between atoms: _122  and  _123
REMARK   48  A    between atoms: _123  and  _124
REMARK   49  A    between atoms: _124  and  _125
REMARK   50  A    between atoms: _129  and  _131
REMARK   51  A    between atoms: _131  and  _132
REMARK   52  A    between atoms: _131  and  _134
REMARK   53  A    between atoms: _134  and  _135
REMARK   54  A    between atoms: _140  and  _142
REMARK   55  A    between atoms: _142  and  _143
REMARK   56  A    between atoms: _142  and  _145
REMARK   57  A    between atoms: _145  and  _146
REMARK   58  A    between atoms: _151  and  _152
REMARK   59  A    between atoms: _154  and  _156
REMARK   60  A    between atoms: _156  and  _157
REMARK   61  A    between atoms: _156  and  _159
REMARK   62  A    between atoms: _159  and  _160
REMARK   63  A    between atoms: _160  and  _161
REMARK   64  A    between atoms: _161  and  _162
REMARK   65  A    between atoms: _171  and  _173
REMARK   66  A    between atoms: _173  and  _174
REMARK   67  A    between atoms: _178  and  _180
REMARK   68  A    between atoms: _180  and  _181
REMARK   69  A    between atoms: _180  and  _183
REMARK   70  A    between atoms: _183  and  _184
REMARK   71  A    between atoms: _186  and  _188
REMARK   72  A    between atoms: _188  and  _189
REMARK   73  A    between atoms: _188  and  _191
REMARK   74  A    between atoms: _191  and  _192
REMARK   75  A    between atoms: _192  and  _193
REMARK   76  A    between atoms: _196  and  _198
REMARK   77  A    between atoms: _198  and  _199
REMARK   78  A    between atoms: _198  and  _201
REMARK   79  A    between atoms: _201  and  _202
REMARK   80  A    between atoms: _202  and  _352
REMARK   81  A    between atoms: _203  and  _205
REMARK   82  A    between atoms: _205  and  _206
REMARK   83  A    between atoms: _205  and  _208
REMARK   84  A    between atoms: _208  and  _209
REMARK   85  A    between atoms: _209  and  _210
REMARK   86  A    between atoms: _210  and  _211
REMARK   87  A    between atoms: _220  and  _222
REMARK   88  A    between atoms: _222  and  _223
REMARK   89  A    between atoms: _222  and  _225
REMARK   90  A    between atoms: _225  and  _226
REMARK   91  A    between atoms: _226  and  _227
REMARK   92  A    between atoms: _230  and  _232
REMARK   93  A    between atoms: _232  and  _233
REMARK   94  A    between atoms: _232  and  _235
REMARK   95  A    between atoms: _235  and  _236
REMARK   96  A    between atoms: _236  and  _237
REMARK   97  A    between atoms: _237  and  _238
REMARK   98  A    between atoms: _247  and  _249
REMARK   99  A    between atoms: _249  and  _250
REMARK  100  A    between atoms: _249  and  _252
REMARK  101  A    between atoms: _252  and  _253
REMARK  102  A    between atoms: _255  and  _257
REMARK  103  A    between atoms: _257  and  _258
REMARK  104  A    between atoms: _257  and  _260
REMARK  105  A    between atoms: _260  and  _261
REMARK  106  A    between atoms: _266  and  _267
REMARK  107  A    between atoms: _269  and  _271
REMARK  108  A    between atoms: _271  and  _272
REMARK  109  A    between atoms: _271  and  _274
REMARK  110  A    between atoms: _274  and  _275
REMARK  111  A    between atoms: _280  and  _282
REMARK  112  A    between atoms: _282  and  _283
REMARK  113  A    between atoms: _282  and  _285
REMARK  114  A    between atoms: _288  and  _290
REMARK  115  A    between atoms: _290  and  _291
REMARK  116  A    between atoms: _290  and  _293
REMARK  117  A    between atoms: _293  and  _294
REMARK  118  A    between atoms: _294  and  _295
REMARK  119  A    between atoms: _295  and  _296
REMARK  120  A    between atoms: _305  and  _307
REMARK  121  A    between atoms: _307  and  _308
REMARK  122  A    between atoms: _307  and  _310
REMARK  123  A    between atoms: _310  and  _311
REMARK  124  A    between atoms: _316  and  _318
REMARK  125  A    between atoms: _318  and  _319
REMARK  126  A    between atoms: _318  and  _321
REMARK  127  A    between atoms: _321  and  _322
REMARK  128  A    between atoms: _325  and  _327
REMARK  129  A    between atoms: _327  and  _328
REMARK  130  A    between atoms: _330  and  _332
REMARK  131  A    between atoms: _332  and  _333
REMARK  132  A    between atoms: _332  and  _335
REMARK  133  A    between atoms: _335  and  _336
REMARK  134  A    between atoms: _346  and  _348
REMARK  135  A    between atoms: _348  and  _349
REMARK  136  A    between atoms: _348  and  _351
REMARK  137  A    between atoms: _351  and  _352
REMARK  138  A    between atoms: _353  and  _355
REMARK  139  A    between atoms: _355  and  _356
REMARK  140  A    between atoms: _355  and  _358
REMARK  141  A    between atoms: _358  and  _359
REMARK  142  A    between atoms: _362  and  _364
REMARK  143  A    between atoms: _364  and  _365
REMARK  144  A    between atoms: _367  and  _369
REMARK  145  A    between atoms: _369  and  _370
REMARK  146  A    between atoms: _369  and  _372
REMARK  147  A    between atoms: _372  and  _373
REMARK  148  A    between atoms: _378  and  _379
REMARK  149  A    between atoms: _381  and  _383
REMARK  150  A    between atoms: _383  and  _384
REMARK  151  A    between atoms: _383  and  _386
REMARK  152  A    between atoms: _386  and  _387
REMARK  153  A    between atoms: _387  and  _388
REMARK  154  A    between atoms: _388  and  _389
REMARK  155  A    between atoms: _398  and  _400
REMARK  156  A    between atoms: _400  and  _401
REMARK  157  A    between atoms: _400  and  _403
REMARK  158  A    between atoms: _403  and  _404
REMARK  159  A    between atoms: _407  and  _409
REMARK  160  A    between atoms: _409  and  _410
REMARK  161  A    between atoms: _409  and  _412
REMARK  162  A    between atoms: _412  and  _413
REMARK  163  A    between atoms: _413  and  _414
REMARK  164  A    between atoms: _414  and  _415
REMARK  165  A    between atoms: _415  and  _416
REMARK  166  A    between atoms: _420  and  _422
REMARK  167  A    between atoms: _422  and  _423
REMARK  168  A    between atoms: _425  and  _427
REMARK  169  A    between atoms: _427  and  _428
REMARK  170  A    between atoms: _431  and  _433
REMARK  171  A    between atoms: _433  and  _434
REMARK  172  A    between atoms: _433  and  _436
REMARK  173  A    between atoms: _436  and  _437
REMARK  174  A    between atoms: _442  and  _444
REMARK  175  A    between atoms: _444  and  _445
REMARK  176  A    between atoms: _448  and  _450
REMARK  177  A    between atoms: _450  and  _451
REMARK  178  A    between atoms: _454  and  _455
REMARK  179  A    between atoms: _460  and  _462
REMARK  180  A    between atoms: _462  and  _463
REMARK  181  A    between atoms: _462  and  _465
REMARK  182  A    between atoms: _465  and  _466
REMARK  183  A    between atoms: _469  and  _471
REMARK  184  A    between atoms: _471  and  _472
REMARK  185  A    between atoms: _471  and  _474
REMARK  186  A    between atoms: _474  and  _475
REMARK  187  A    between atoms: _485  and  _487
REMARK  188  A    between atoms: _487  and  _488
REMARK  189  A    between atoms: _487  and  _490
REMARK  190  A    between atoms: _490  and  _491
REMARK  191  A    between atoms: _497  and  _498
REMARK  192  A    between atoms: _503  and  _505
REMARK  193  A    between atoms: _505  and  _506
REMARK  194  A    between atoms: _505  and  _508
REMARK  195  A    between atoms: _508  and  _509
REMARK  196  A    between atoms: _514  and  _516
REMARK  197  A    between atoms: _516  and  _517
REMARK  198  A    between atoms: _516  and  _519
REMARK  199  A    between atoms: _522  and  _524
REMARK  200  A    between atoms: _524  and  _525
REMARK  201  A    between atoms: _524  and  _527
REMARK  202  A    between atoms: _527  and  _528
REMARK  203  A    between atoms: _528  and  _529
REMARK  204  A    between atoms: _535  and  _536
REMARK  205  A    between atoms: _541  and  _543
REMARK  206  A    between atoms: _543  and  _544
REMARK  207  A    between atoms: _543  and  _546
REMARK  208  A    between atoms: _546  and  _547
REMARK  209  A    between atoms: _550  and  _552
REMARK  210  A    between atoms: _552  and  _553
REMARK  211  A    between atoms: _552  and  _555
REMARK  212  A    between atoms: _555  and  _556
REMARK  213  A    between atoms: _558  and  _560
REMARK  214  A    between atoms: _560  and  _561
REMARK  215  A    between atoms: _560  and  _563
REMARK  216  A    between atoms: _563  and  _564
REMARK  217  A    between atoms: _569  and  _570
REMARK  218  A    between atoms: _572  and  _574
REMARK  219  A    between atoms: _574  and  _575
REMARK  220  A    between atoms: _574  and  _577
REMARK  221  A    between atoms: _577  and  _578
REMARK  222  A    between atoms: _588  and  _590
REMARK  223  A    between atoms: _590  and  _591
REMARK  224  A    between atoms: _593  and  _595
REMARK  225  A    between atoms: _595  and  _596
REMARK  226  A    between atoms: _599  and  _601
REMARK  227  A    between atoms: _601  and  _602
REMARK  228  A    between atoms: _601  and  _604
REMARK  229  A    between atoms: _604  and  _605
REMARK  230  A    between atoms: _610  and  _612
REMARK  231  A    between atoms: _612  and  _613
REMARK  232  A    between atoms: _616  and  _618
REMARK  233  A    between atoms: _618  and  _619
REMARK  234  A    between atoms: _622  and  _623
REMARK  235  A    between atoms: _628  and  _630
REMARK  236  A    between atoms: _630  and  _631
REMARK  237  A    between atoms: _630  and  _633
REMARK  238  A    between atoms: _633  and  _634
REMARK  239  A    between atoms: _637  and  _639
REMARK  240  A    between atoms: _639  and  _640
REMARK  241  A    between atoms: _639  and  _642
REMARK  242  A    between atoms: _642  and  _643
REMARK  243  A    between atoms: _653  and  _655
REMARK  244  A    between atoms: _655  and  _656
REMARK  245  A    between atoms: _655  and  _658
REMARK  246  A    between atoms: _658  and  _659
REMARK  247  A    between atoms: _664  and  _666
REMARK  248  A    between atoms: _666  and  _667
REMARK  249  A    between atoms: _666  and  _669
REMARK  250  A    between atoms: _669  and  _670
REMARK  251  A    between atoms: _673  and  _675
REMARK  252  A    between atoms: _675  and  _676
REMARK  253  A    between atoms: _675  and  _678
REMARK  254  A    between atoms: _678  and  _679
REMARK  255  A    between atoms: _679  and  _680
REMARK  256  A    between atoms: _683  and  _685
REMARK  257  A    between atoms: _685  and  _686
REMARK  258  A    between atoms: _685  and  _688
REMARK  259  A    between atoms: _688  and  _689
REMARK  260  A    between atoms: _689  and  _690
REMARK  261  A    between atoms: _690  and  _691
REMARK  262  A    between atoms: _691  and  _692
REMARK  263  A    between atoms: _696  and  _698
REMARK  264  A    between atoms: _698  and  _699
REMARK  265  A    between atoms: _698  and  _701
REMARK  266  A    between atoms: _701  and  _702
REMARK  267  A    between atoms: _707  and  _709
REMARK  268  A    between atoms: _709  and  _710
REMARK  269  A    between atoms: _709  and  _712
REMARK  270  A    between atoms: _712  and  _713
REMARK  271  A    between atoms: _713  and  _714
REMARK  272  A    between atoms: _714  and  _715
REMARK  273  A    between atoms: _724  and  _726
REMARK  274  A    between atoms: _726  and  _727
REMARK  275  A    between atoms: _726  and  _729
REMARK  276  A    between atoms: _729  and  _730
REMARK  277  A    between atoms: _733  and  _735
REMARK  278  A    between atoms: _735  and  _736
REMARK  279  A    between atoms: _735  and  _738
REMARK  280  A    between atoms: _741  and  _743
REMARK  281  A    between atoms: _743  and  _744
REMARK  282  A    between atoms: _743  and  _746
REMARK  283  A    between atoms: _746  and  _747
REMARK  284  A    between atoms: _747  and  _748
REMARK  285  A    between atoms: _754  and  _755
REMARK  286  A    between atoms: _760  and  _762
REMARK  287  A    between atoms: _762  and  _763
REMARK  288  A    between atoms: _762  and  _765
REMARK  289  A    between atoms: _765  and  _766
REMARK  290  A    between atoms: _769  and  _771
REMARK  291  A    between atoms: _771  and  _772
REMARK  292  A    between atoms: _771  and  _774
REMARK  293  A    between atoms: _774  and  _775
REMARK  294  A    between atoms: _775  and  _776
REMARK  295  A    between atoms: _776  and  _777
REMARK  296  A    between atoms: _786  and  _788
REMARK  297  A    between atoms: _788  and  _789
REMARK                            x       y       z     vdW  Elec       q    Type
REMARK                         _______ _______ _______ _____ _____    ______ ____
ROOT
ATOM      1  O   HOH     1      17.268  16.695  -9.330  0.00  0.00    +0.000 OA
ENDROOT
TORSDOF 0
REMARK  Name = ../refined-set-2016/3o4k/3o4k_pocket.pdb
REMARK  297 active torsions:
REMARK  status: ('A' for Active; 'I' for Inactive)
REMARK    1  A    between atoms: _1  and  _3
REMARK    2  A    between atoms: _3  and  _4
REMARK    3  A    between atoms: _3  and  _6
REMARK    4  A    between atoms: _6  and  _7
REMARK    5  A    between atoms: _7  and  _8
REMARK    6  A    between atoms: _8  and  _9
REMARK    7  A    between atoms: _18  and  _20
REMARK    8  A    between atoms: _20  and  _21
REMARK    9  A    between atoms: _20  and  _23
REMARK   10  A    between atoms: _23  and  _24
REMARK   11  A    between atoms: _29  and  _30
REMARK   12  A    between atoms: _32  and  _34
REMARK   13  A    between atoms: _34  and  _35
REMARK   14  A    between atoms: _34  and  _37
REMARK   15  A    between atoms: _37  and  _38
REMARK   16  A    between atoms: _48  and  _50
REMARK   17  A    between atoms: _50  and  _51
REMARK   18  A    between atoms: _50  and  _53
REMARK   19  A    between atoms: _53  and  _54
REMARK   20  A    between atoms: _54  and  _55
REMARK   21  A    between atoms: _55  and  _56
REMARK   22  A    between atoms: _65  and  _67
REMARK   23  A    between atoms: _67  and  _68
REMARK   24  A    between atoms: _67  and  _70
REMARK   25  A    between atoms: _70  and  _71
REMARK   26  A    between atoms: _73  and  _75
REMARK   27  A    between atoms: _75  and  _76
REMARK   28  A    between atoms: _75  and  _78
REMARK   29  A    between atoms: _78  and  _79
REMARK   30  A    between atoms: _84  and  _86
REMARK   31  A    between atoms: _86  and  _87
REMARK   32  A    between atoms: _86  and  _89
REMARK   33  A    between atoms: _89  and  _90
REMARK   34  A    between atoms: _95  and  _96
REMARK   35  A    between atoms: _98  and  _100
REMARK   36  A    between atoms: _100  and  _101
REMARK   37  A    between atoms: _100  and  _103
REMARK   38  A    between atoms: _103  and  _104
REMARK   39  A    between atoms: _104  and  _105
REMARK   40  A    between atoms: _108  and  _110
REMARK   41  A    between atoms: _110  and  _111
REMARK   42  A    between atoms: _110  and  _113
REMARK   43  A    between atoms: _116  and  _118
REMARK   44  A    between atoms: _118  and  _119
REMARK   45  A    between atoms: _118  and  _121
REMARK   46  A    between atoms: _121  and  _122
REMARK   47  A    between atoms: _122  and  _123
REMARK   48  A    between atoms: _123  and  _124
REMARK   49  A    between atoms: _124  and  _125
REMARK   50  A    between atoms: _129  and  _131
REMARK   51  A    between atoms: _131  and  _132
REMARK   52  A    between atoms: _131  and  _134
REMARK   53  A    between atoms: _134  and  _135
REMARK   54  A    between atoms: _140  and  _142
REMARK   55  A    between atoms: _142  and  _143
REMARK   56  A    between atoms: _142  and  _145
REMARK   57  A    between atoms: _145  and  _146
REMARK   58  A    between atoms: _151  and  _152
REMARK   59  A    between atoms: _154  and  _156
REMARK   60  A    between atoms: _156  and  _157
REMARK   61  A    between atoms: _156  and  _159
REMARK   62  A    between atoms: _159  and  _160
REMARK   63  A    between atoms: _160  and  _161
REMARK   64  A    between atoms: _161  and  _162
REMARK   65  A    between atoms: _171  and  _173
REMARK   66  A    between atoms: _173  and  _174
REMARK   67  A    between atoms: _178  and  _180
REMARK   68  A    between atoms: _180  and  _181
REMARK   69  A    between atoms: _180  and  _183
REMARK   70  A    between atoms: _183  and  _184
REMARK   71  A    between atoms: _186  and  _188
REMARK   72  A    between atoms: _188  and  _189
REMARK   73  A    between atoms: _188  and  _191
REMARK   74  A    between atoms: _191  and  _192
REMARK   75  A    between atoms: _192  and  _193
REMARK   76  A    between atoms: _196  and  _198
REMARK   77  A    between atoms: _198  and  _199
REMARK   78  A    between atoms: _198  and  _201
REMARK   79  A    between atoms: _201  and  _202
REMARK   80  A    between atoms: _202  and  _352
REMARK   81  A    between atoms: _203  and  _205
REMARK   82  A    between atoms: _205  and  _206
REMARK   83  A    between atoms: _205  and  _208
REMARK   84  A    between atoms: _208  and  _209
REMARK   85  A    between atoms: _209  and  _210
REMARK   86  A    between atoms: _210  and  _211
REMARK   87  A    between atoms: _220  and  _222
REMARK   88  A    between atoms: _222  and  _223
REMARK   89  A    between atoms: _222  and  _225
REMARK   90  A    between atoms: _225  and  _226
REMARK   91  A    between atoms: _226  and  _227
REMARK   92  A    between atoms: _230  and  _232
REMARK   93  A    between atoms: _232  and  _233
REMARK   94  A    between atoms: _232  and  _235
REMARK   95  A    between atoms: _235  and  _236
REMARK   96  A    between atoms: _236  and  _237
REMARK   97  A    between atoms: _237  and  _238
REMARK   98  A    between atoms: _247  and  _249
REMARK   99  A    between atoms: _249  and  _250
REMARK  100  A    between atoms: _249  and  _252
REMARK  101  A    between atoms: _252  and  _253
REMARK  102  A    between atoms: _255  and  _257
REMARK  103  A    between atoms: _257  and  _258
REMARK  104  A    between atoms: _257  and  _260
REMARK  105  A    between atoms: _260  and  _261
REMARK  106  A    between atoms: _266  and  _267
REMARK  107  A    between atoms: _269  and  _271
REMARK  108  A    between atoms: _271  and  _272
REMARK  109  A    between atoms: _271  and  _274
REMARK  110  A    between atoms: _274  and  _275
REMARK  111  A    between atoms: _280  and  _282
REMARK  112  A    between atoms: _282  and  _283
REMARK  113  A    between atoms: _282  and  _285
REMARK  114  A    between atoms: _288  and  _290
REMARK  115  A    between atoms: _290  and  _291
REMARK  116  A    between atoms: _290  and  _293
REMARK  117  A    between atoms: _293  and  _294
REMARK  118  A    between atoms: _294  and  _295
REMARK  119  A    between atoms: _295  and  _296
REMARK  120  A    between atoms: _305  and  _307
REMARK  121  A    between atoms: _307  and  _308
REMARK  122  A    between atoms: _307  and  _310
REMARK  123  A    between atoms: _310  and  _311
REMARK  124  A    between atoms: _316  and  _318
REMARK  125  A    between atoms: _318  and  _319
REMARK  126  A    between atoms: _318  and  _321
REMARK  127  A    between atoms: _321  and  _322
REMARK  128  A    between atoms: _325  and  _327
REMARK  129  A    between atoms: _327  and  _328
REMARK  130  A    between atoms: _330  and  _332
REMARK  131  A    between atoms: _332  and  _333
REMARK  132  A    between atoms: _332  and  _335
REMARK  133  A    between atoms: _335  and  _336
REMARK  134  A    between atoms: _346  and  _348
REMARK  135  A    between atoms: _348  and  _349
REMARK  136  A    between atoms: _348  and  _351
REMARK  137  A    between atoms: _351  and  _352
REMARK  138  A    between atoms: _353  and  _355
REMARK  139  A    between atoms: _355  and  _356
REMARK  140  A    between atoms: _355  and  _358
REMARK  141  A    between atoms: _358  and  _359
REMARK  142  A    between atoms: _362  and  _364
REMARK  143  A    between atoms: _364  and  _365
REMARK  144  A    between atoms: _367  and  _369
REMARK  145  A    between atoms: _369  and  _370
REMARK  146  A    between atoms: _369  and  _372
REMARK  147  A    between atoms: _372  and  _373
REMARK  148  A    between atoms: _378  and  _379
REMARK  149  A    between atoms: _381  and  _383
REMARK  150  A    between atoms: _383  and  _384
REMARK  151  A    between atoms: _383  and  _386
REMARK  152  A    between atoms: _386  and  _387
REMARK  153  A    between atoms: _387  and  _388
REMARK  154  A    between atoms: _388  and  _389
REMARK  155  A    between atoms: _398  and  _400
REMARK  156  A    between atoms: _400  and  _401
REMARK  157  A    between atoms: _400  and  _403
REMARK  158  A    between atoms: _403  and  _404
REMARK  159  A    between atoms: _407  and  _409
REMARK  160  A    between atoms: _409  and  _410
REMARK  161  A    between atoms: _409  and  _412
REMARK  162  A    between atoms: _412  and  _413
REMARK  163  A    between atoms: _413  and  _414
REMARK  164  A    between atoms: _414  and  _415
REMARK  165  A    between atoms: _415  and  _416
REMARK  166  A    between atoms: _420  and  _422
REMARK  167  A    between atoms: _422  and  _423
REMARK  168  A    between atoms: _425  and  _427
REMARK  169  A    between atoms: _427  and  _428
REMARK  170  A    between atoms: _431  and  _433
REMARK  171  A    between atoms: _433  and  _434
REMARK  172  A    between atoms: _433  and  _436
REMARK  173  A    between atoms: _436  and  _437
REMARK  174  A    between atoms: _442  and  _444
REMARK  175  A    between atoms: _444  and  _445
REMARK  176  A    between atoms: _448  and  _450
REMARK  177  A    between atoms: _450  and  _451
REMARK  178  A    between atoms: _454  and  _455
REMARK  179  A    between atoms: _460  and  _462
REMARK  180  A    between atoms: _462  and  _463
REMARK  181  A    between atoms: _462  and  _465
REMARK  182  A    between atoms: _465  and  _466
REMARK  183  A    between atoms: _469  and  _471
REMARK  184  A    between atoms: _471  and  _472
REMARK  185  A    between atoms: _471  and  _474
REMARK  186  A    between atoms: _474  and  _475
REMARK  187  A    between atoms: _485  and  _487
REMARK  188  A    between atoms: _487  and  _488
REMARK  189  A    between atoms: _487  and  _490
REMARK  190  A    between atoms: _490  and  _491
REMARK  191  A    between atoms: _497  and  _498
REMARK  192  A    between atoms: _503  and  _505
REMARK  193  A    between atoms: _505  and  _506
REMARK  194  A    between atoms: _505  and  _508
REMARK  195  A    between atoms: _508  and  _509
REMARK  196  A    between atoms: _514  and  _516
REMARK  197  A    between atoms: _516  and  _517
REMARK  198  A    between atoms: _516  and  _519
REMARK  199  A    between atoms: _522  and  _524
REMARK  200  A    between atoms: _524  and  _525
REMARK  201  A    between atoms: _524  and  _527
REMARK  202  A    between atoms: _527  and  _528
REMARK  203  A    between atoms: _528  and  _529
REMARK  204  A    between atoms: _535  and  _536
REMARK  205  A    between atoms: _541  and  _543
REMARK  206  A    between atoms: _543  and  _544
REMARK  207  A    between atoms: _543  and  _546
REMARK  208  A    between atoms: _546  and  _547
REMARK  209  A    between atoms: _550  and  _552
REMARK  210  A    between atoms: _552  and  _553
REMARK  211  A    between atoms: _552  and  _555
REMARK  212  A    between atoms: _555  and  _556
REMARK  213  A    between atoms: _558  and  _560
REMARK  214  A    between atoms: _560  and  _561
REMARK  215  A    between atoms: _560  and  _563
REMARK  216  A    between atoms: _563  and  _564
REMARK  217  A    between atoms: _569  and  _570
REMARK  218  A    between atoms: _572  and  _574
REMARK  219  A    between atoms: _574  and  _575
REMARK  220  A    between atoms: _574  and  _577
REMARK  221  A    between atoms: _577  and  _578
REMARK  222  A    between atoms: _588  and  _590
REMARK  223  A    between atoms: _590  and  _591
REMARK  224  A    between atoms: _593  and  _595
REMARK  225  A    between atoms: _595  and  _596
REMARK  226  A    between atoms: _599  and  _601
REMARK  227  A    between atoms: _601  and  _602
REMARK  228  A    between atoms: _601  and  _604
REMARK  229  A    between atoms: _604  and  _605
REMARK  230  A    between atoms: _610  and  _612
REMARK  231  A    between atoms: _612  and  _613
REMARK  232  A    between atoms: _616  and  _618
REMARK  233  A    between atoms: _618  and  _619
REMARK  234  A    between atoms: _622  and  _623
REMARK  235  A    between atoms: _628  and  _630
REMARK  236  A    between atoms: _630  and  _631
REMARK  237  A    between atoms: _630  and  _633
REMARK  238  A    between atoms: _633  and  _634
REMARK  239  A    between atoms: _637  and  _639
REMARK  240  A    between atoms: _639  and  _640
REMARK  241  A    between atoms: _639  and  _642
REMARK  242  A    between atoms: _642  and  _643
REMARK  243  A    between atoms: _653  and  _655
REMARK  244  A    between atoms: _655  and  _656
REMARK  245  A    between atoms: _655  and  _658
REMARK  246  A    between atoms: _658  and  _659
REMARK  247  A    between atoms: _664  and  _666
REMARK  248  A    between atoms: _666  and  _667
REMARK  249  A    between atoms: _666  and  _669
REMARK  250  A    between atoms: _669  and  _670
REMARK  251  A    between atoms: _673  and  _675
REMARK  252  A    between atoms: _675  and  _676
REMARK  253  A    between atoms: _675  and  _678
REMARK  254  A    between atoms: _678  and  _679
REMARK  255  A    between atoms: _679  and  _680
REMARK  256  A    between atoms: _683  and  _685
REMARK  257  A    between atoms: _685  and  _686
REMARK  258  A    between atoms: _685  and  _688
REMARK  259  A    between atoms: _688  and  _689
REMARK  260  A    between atoms: _689  and  _690
REMARK  261  A    between atoms: _690  and  _691
REMARK  262  A    between atoms: _691  and  _692
REMARK  263  A    between atoms: _696  and  _698
REMARK  264  A    between atoms: _698  and  _699
REMARK  265  A    between atoms: _698  and  _701
REMARK  266  A    between atoms: _701  and  _702
REMARK  267  A    between atoms: _707  and  _709
REMARK  268  A    between atoms: _709  and  _710
REMARK  269  A    between atoms: _709  and  _712
REMARK  270  A    between atoms: _712  and  _713
REMARK  271  A    between atoms: _713  and  _714
REMARK  272  A    between atoms: _714  and  _715
REMARK  273  A    between atoms: _724  and  _726
REMARK  274  A    between atoms: _726  and  _727
REMARK  275  A    between atoms: _726  and  _729
REMARK  276  A    between atoms: _729  and  _730
REMARK  277  A    between atoms: _733  and  _735
REMARK  278  A    between atoms: _735  and  _736
REMARK  279  A    between atoms: _735  and  _738
REMARK  280  A    between atoms: _741  and  _743
REMARK  281  A    between atoms: _743  and  _744
REMARK  282  A    between atoms: _743  and  _746
REMARK  283  A    between atoms: _746  and  _747
REMARK  284  A    between atoms: _747  and  _748
REMARK  285  A    between atoms: _754  and  _755
REMARK  286  A    between atoms: _760  and  _762
REMARK  287  A    between atoms: _762  and  _763
REMARK  288  A    between atoms: _762  and  _765
REMARK  289  A    between atoms: _765  and  _766
REMARK  290  A    between atoms: _769  and  _771
REMARK  291  A    between atoms: _771  and  _772
REMARK  292  A    between atoms: _771  and  _774
REMARK  293  A    between atoms: _774  and  _775
REMARK  294  A    between atoms: _775  and  _776
REMARK  295  A    between atoms: _776  and  _777
REMARK  296  A    between atoms: _786  and  _788
REMARK  297  A    between atoms: _788  and  _789
REMARK                            x       y       z     vdW  Elec       q    Type
REMARK                         _______ _______ _______ _____ _____    ______ ____
ROOT
ATOM      1  O   HOH     1      19.309  15.777 -22.079  0.00  0.00    +0.000 OA
ENDROOT
TORSDOF 0
REMARK  Name = ../refined-set-2016/3o4k/3o4k_pocket.pdb
REMARK  297 active torsions:
REMARK  status: ('A' for Active; 'I' for Inactive)
REMARK    1  A    between atoms: _1  and  _3
REMARK    2  A    between atoms: _3  and  _4
REMARK    3  A    between atoms: _3  and  _6
REMARK    4  A    between atoms: _6  and  _7
REMARK    5  A    between atoms: _7  and  _8
REMARK    6  A    between atoms: _8  and  _9
REMARK    7  A    between atoms: _18  and  _20
REMARK    8  A    between atoms: _20  and  _21
REMARK    9  A    between atoms: _20  and  _23
REMARK   10  A    between atoms: _23  and  _24
REMARK   11  A    between atoms: _29  and  _30
REMARK   12  A    between atoms: _32  and  _34
REMARK   13  A    between atoms: _34  and  _35
REMARK   14  A    between atoms: _34  and  _37
REMARK   15  A    between atoms: _37  and  _38
REMARK   16  A    between atoms: _48  and  _50
REMARK   17  A    between atoms: _50  and  _51
REMARK   18  A    between atoms: _50  and  _53
REMARK   19  A    between atoms: _53  and  _54
REMARK   20  A    between atoms: _54  and  _55
REMARK   21  A    between atoms: _55  and  _56
REMARK   22  A    between atoms: _65  and  _67
REMARK   23  A    between atoms: _67  and  _68
REMARK   24  A    between atoms: _67  and  _70
REMARK   25  A    between atoms: _70  and  _71
REMARK   26  A    between atoms: _73  and  _75
REMARK   27  A    between atoms: _75  and  _76
REMARK   28  A    between atoms: _75  and  _78
REMARK   29  A    between atoms: _78  and  _79
REMARK   30  A    between atoms: _84  and  _86
REMARK   31  A    between atoms: _86  and  _87
REMARK   32  A    between atoms: _86  and  _89
REMARK   33  A    between atoms: _89  and  _90
REMARK   34  A    between atoms: _95  and  _96
REMARK   35  A    between atoms: _98  and  _100
REMARK   36  A    between atoms: _100  and  _101
REMARK   37  A    between atoms: _100  and  _103
REMARK   38  A    between atoms: _103  and  _104
REMARK   39  A    between atoms: _104  and  _105
REMARK   40  A    between atoms: _108  and  _110
REMARK   41  A    between atoms: _110  and  _111
REMARK   42  A    between atoms: _110  and  _113
REMARK   43  A    between atoms: _116  and  _118
REMARK   44  A    between atoms: _118  and  _119
REMARK   45  A    between atoms: _118  and  _121
REMARK   46  A    between atoms: _121  and  _122
REMARK   47  A    between atoms: _122  and  _123
REMARK   48  A    between atoms: _123  and  _124
REMARK   49  A    between atoms: _124  and  _125
REMARK   50  A    between atoms: _129  and  _131
REMARK   51  A    between atoms: _131  and  _132
REMARK   52  A    between atoms: _131  and  _134
REMARK   53  A    between atoms: _134  and  _135
REMARK   54  A    between atoms: _140  and  _142
REMARK   55  A    between atoms: _142  and  _143
REMARK   56  A    between atoms: _142  and  _145
REMARK   57  A    between atoms: _145  and  _146
REMARK   58  A    between atoms: _151  and  _152
REMARK   59  A    between atoms: _154  and  _156
REMARK   60  A    between atoms: _156  and  _157
REMARK   61  A    between atoms: _156  and  _159
REMARK   62  A    between atoms: _159  and  _160
REMARK   63  A    between atoms: _160  and  _161
REMARK   64  A    between atoms: _161  and  _162
REMARK   65  A    between atoms: _171  and  _173
REMARK   66  A    between atoms: _173  and  _174
REMARK   67  A    between atoms: _178  and  _180
REMARK   68  A    between atoms: _180  and  _181
REMARK   69  A    between atoms: _180  and  _183
REMARK   70  A    between atoms: _183  and  _184
REMARK   71  A    between atoms: _186  and  _188
REMARK   72  A    between atoms: _188  and  _189
REMARK   73  A    between atoms: _188  and  _191
REMARK   74  A    between atoms: _191  and  _192
REMARK   75  A    between atoms: _192  and  _193
REMARK   76  A    between atoms: _196  and  _198
REMARK   77  A    between atoms: _198  and  _199
REMARK   78  A    between atoms: _198  and  _201
REMARK   79  A    between atoms: _201  and  _202
REMARK   80  A    between atoms: _202  and  _352
REMARK   81  A    between atoms: _203  and  _205
REMARK   82  A    between atoms: _205  and  _206
REMARK   83  A    between atoms: _205  and  _208
REMARK   84  A    between atoms: _208  and  _209
REMARK   85  A    between atoms: _209  and  _210
REMARK   86  A    between atoms: _210  and  _211
REMARK   87  A    between atoms: _220  and  _222
REMARK   88  A    between atoms: _222  and  _223
REMARK   89  A    between atoms: _222  and  _225
REMARK   90  A    between atoms: _225  and  _226
REMARK   91  A    between atoms: _226  and  _227
REMARK   92  A    between atoms: _230  and  _232
REMARK   93  A    between atoms: _232  and  _233
REMARK   94  A    between atoms: _232  and  _235
REMARK   95  A    between atoms: _235  and  _236
REMARK   96  A    between atoms: _236  and  _237
REMARK   97  A    between atoms: _237  and  _238
REMARK   98  A    between atoms: _247  and  _249
REMARK   99  A    between atoms: _249  and  _250
REMARK  100  A    between atoms: _249  and  _252
REMARK  101  A    between atoms: _252  and  _253
REMARK  102  A    between atoms: _255  and  _257
REMARK  103  A    between atoms: _257  and  _258
REMARK  104  A    between atoms: _257  and  _260
REMARK  105  A    between atoms: _260  and  _261
REMARK  106  A    between atoms: _266  and  _267
REMARK  107  A    between atoms: _269  and  _271
REMARK  108  A    between atoms: _271  and  _272
REMARK  109  A    between atoms: _271  and  _274
REMARK  110  A    between atoms: _274  and  _275
REMARK  111  A    between atoms: _280  and  _282
REMARK  112  A    between atoms: _282  and  _283
REMARK  113  A    between atoms: _282  and  _285
REMARK  114  A    between atoms: _288  and  _290
REMARK  115  A    between atoms: _290  and  _291
REMARK  116  A    between atoms: _290  and  _293
REMARK  117  A    between atoms: _293  and  _294
REMARK  118  A    between atoms: _294  and  _295
REMARK  119  A    between atoms: _295  and  _296
REMARK  120  A    between atoms: _305  and  _307
REMARK  121  A    between atoms: _307  and  _308
REMARK  122  A    between atoms: _307  and  _310
REMARK  123  A    between atoms: _310  and  _311
REMARK  124  A    between atoms: _316  and  _318
REMARK  125  A    between atoms: _318  and  _319
REMARK  126  A    between atoms: _318  and  _321
REMARK  127  A    between atoms: _321  and  _322
REMARK  128  A    between atoms: _325  and  _327
REMARK  129  A    between atoms: _327  and  _328
REMARK  130  A    between atoms: _330  and  _332
REMARK  131  A    between atoms: _332  and  _333
REMARK  132  A    between atoms: _332  and  _335
REMARK  133  A    between atoms: _335  and  _336
REMARK  134  A    between atoms: _346  and  _348
REMARK  135  A    between atoms: _348  and  _349
REMARK  136  A    between atoms: _348  and  _351
REMARK  137  A    between atoms: _351  and  _352
REMARK  138  A    between atoms: _353  and  _355
REMARK  139  A    between atoms: _355  and  _356
REMARK  140  A    between atoms: _355  and  _358
REMARK  141  A    between atoms: _358  and  _359
REMARK  142  A    between atoms: _362  and  _364
REMARK  143  A    between atoms: _364  and  _365
REMARK  144  A    between atoms: _367  and  _369
REMARK  145  A    between atoms: _369  and  _370
REMARK  146  A    between atoms: _369  and  _372
REMARK  147  A    between atoms: _372  and  _373
REMARK  148  A    between atoms: _378  and  _379
REMARK  149  A    between atoms: _381  and  _383
REMARK  150  A    between atoms: _383  and  _384
REMARK  151  A    between atoms: _383  and  _386
REMARK  152  A    between atoms: _386  and  _387
REMARK  153  A    between atoms: _387  and  _388
REMARK  154  A    between atoms: _388  and  _389
REMARK  155  A    between atoms: _398  and  _400
REMARK  156  A    between atoms: _400  and  _401
REMARK  157  A    between atoms: _400  and  _403
REMARK  158  A    between atoms: _403  and  _404
REMARK  159  A    between atoms: _407  and  _409
REMARK  160  A    between atoms: _409  and  _410
REMARK  161  A    between atoms: _409  and  _412
REMARK  162  A    between atoms: _412  and  _413
REMARK  163  A    between atoms: _413  and  _414
REMARK  164  A    between atoms: _414  and  _415
REMARK  165  A    between atoms: _415  and  _416
REMARK  166  A    between atoms: _420  and  _422
REMARK  167  A    between atoms: _422  and  _423
REMARK  168  A    between atoms: _425  and  _427
REMARK  169  A    between atoms: _427  and  _428
REMARK  170  A    between atoms: _431  and  _433
REMARK  171  A    between atoms: _433  and  _434
REMARK  172  A    between atoms: _433  and  _436
REMARK  173  A    between atoms: _436  and  _437
REMARK  174  A    between atoms: _442  and  _444
REMARK  175  A    between atoms: _444  and  _445
REMARK  176  A    between atoms: _448  and  _450
REMARK  177  A    between atoms: _450  and  _451
REMARK  178  A    between atoms: _454  and  _455
REMARK  179  A    between atoms: _460  and  _462
REMARK  180  A    between atoms: _462  and  _463
REMARK  181  A    between atoms: _462  and  _465
REMARK  182  A    between atoms: _465  and  _466
REMARK  183  A    between atoms: _469  and  _471
REMARK  184  A    between atoms: _471  and  _472
REMARK  185  A    between atoms: _471  and  _474
REMARK  186  A    between atoms: _474  and  _475
REMARK  187  A    between atoms: _485  and  _487
REMARK  188  A    between atoms: _487  and  _488
REMARK  189  A    between atoms: _487  and  _490
REMARK  190  A    between atoms: _490  and  _491
REMARK  191  A    between atoms: _497  and  _498
REMARK  192  A    between atoms: _503  and  _505
REMARK  193  A    between atoms: _505  and  _506
REMARK  194  A    between atoms: _505  and  _508
REMARK  195  A    between atoms: _508  and  _509
REMARK  196  A    between atoms: _514  and  _516
REMARK  197  A    between atoms: _516  and  _517
REMARK  198  A    between atoms: _516  and  _519
REMARK  199  A    between atoms: _522  and  _524
REMARK  200  A    between atoms: _524  and  _525
REMARK  201  A    between atoms: _524  and  _527
REMARK  202  A    between atoms: _527  and  _528
REMARK  203  A    between atoms: _528  and  _529
REMARK  204  A    between atoms: _535  and  _536
REMARK  205  A    between atoms: _541  and  _543
REMARK  206  A    between atoms: _543  and  _544
REMARK  207  A    between atoms: _543  and  _546
REMARK  208  A    between atoms: _546  and  _547
REMARK  209  A    between atoms: _550  and  _552
REMARK  210  A    between atoms: _552  and  _553
REMARK  211  A    between atoms: _552  and  _555
REMARK  212  A    between atoms: _555  and  _556
REMARK  213  A    between atoms: _558  and  _560
REMARK  214  A    between atoms: _560  and  _561
REMARK  215  A    between atoms: _560  and  _563
REMARK  216  A    between atoms: _563  and  _564
REMARK  217  A    between atoms: _569  and  _570
REMARK  218  A    between atoms: _572  and  _574
REMARK  219  A    between atoms: _574  and  _575
REMARK  220  A    between atoms: _574  and  _577
REMARK  221  A    between atoms: _577  and  _578
REMARK  222  A    between atoms: _588  and  _590
REMARK  223  A    between atoms: _590  and  _591
REMARK  224  A    between atoms: _593  and  _595
REMARK  225  A    between atoms: _595  and  _596
REMARK  226  A    between atoms: _599  and  _601
REMARK  227  A    between atoms: _601  and  _602
REMARK  228  A    between atoms: _601  and  _604
REMARK  229  A    between atoms: _604  and  _605
REMARK  230  A    between atoms: _610  and  _612
REMARK  231  A    between atoms: _612  and  _613
REMARK  232  A    between atoms: _616  and  _618
REMARK  233  A    between atoms: _618  and  _619
REMARK  234  A    between atoms: _622  and  _623
REMARK  235  A    between atoms: _628  and  _630
REMARK  236  A    between atoms: _630  and  _631
REMARK  237  A    between atoms: _630  and  _633
REMARK  238  A    between atoms: _633  and  _634
REMARK  239  A    between atoms: _637  and  _639
REMARK  240  A    between atoms: _639  and  _640
REMARK  241  A    between atoms: _639  and  _642
REMARK  242  A    between atoms: _642  and  _643
REMARK  243  A    between atoms: _653  and  _655
REMARK  244  A    between atoms: _655  and  _656
REMARK  245  A    between atoms: _655  and  _658
REMARK  246  A    between atoms: _658  and  _659
REMARK  247  A    between atoms: _664  and  _666
REMARK  248  A    between atoms: _666  and  _667
REMARK  249  A    between atoms: _666  and  _669
REMARK  250  A    between atoms: _669  and  _670
REMARK  251  A    between atoms: _673  and  _675
REMARK  252  A    between atoms: _675  and  _676
REMARK  253  A    between atoms: _675  and  _678
REMARK  254  A    between atoms: _678  and  _679
REMARK  255  A    between atoms: _679  and  _680
REMARK  256  A    between atoms: _683  and  _685
REMARK  257  A    between atoms: _685  and  _686
REMARK  258  A    between atoms: _685  and  _688
REMARK  259  A    between atoms: _688  and  _689
REMARK  260  A    between atoms: _689  and  _690
REMARK  261  A    between atoms: _690  and  _691
REMARK  262  A    between atoms: _691  and  _692
REMARK  263  A    between atoms: _696  and  _698
REMARK  264  A    between atoms: _698  and  _699
REMARK  265  A    between atoms: _698  and  _701
REMARK  266  A    between atoms: _701  and  _702
REMARK  267  A    between atoms: _707  and  _709
REMARK  268  A    between atoms: _709  and  _710
REMARK  269  A    between atoms: _709  and  _712
REMARK  270  A    between atoms: _712  and  _713
REMARK  271  A    between atoms: _713  and  _714
REMARK  272  A    between atoms: _714  and  _715
REMARK  273  A    between atoms: _724  and  _726
REMARK  274  A    between atoms: _726  and  _727
REMARK  275  A    between atoms: _726  and  _729
REMARK  276  A    between atoms: _729  and  _730
REMARK  277  A    between atoms: _733  and  _735
REMARK  278  A    between atoms: _735  and  _736
REMARK  279  A    between atoms: _735  and  _738
REMARK  280  A    between atoms: _741  and  _743
REMARK  281  A    between atoms: _743  and  _744
REMARK  282  A    between atoms: _743  and  _746
REMARK  283  A    between atoms: _746  and  _747
REMARK  284  A    between atoms: _747  and  _748
REMARK  285  A    between atoms: _754  and  _755
REMARK  286  A    between atoms: _760  and  _762
REMARK  287  A    between atoms: _762  and  _763
REMARK  288  A    between atoms: _762  and  _765
REMARK  289  A    between atoms: _765  and  _766
REMARK  290  A    between atoms: _769  and  _771
REMARK  291  A    between atoms: _771  and  _772
REMARK  292  A    between atoms: _771  and  _774
REMARK  293  A    between atoms: _774  and  _775
REMARK  294  A    between atoms: _775  and  _776
REMARK  295  A    between atoms: _776  and  _777
REMARK  296  A    between atoms: _786  and  _788
REMARK  297  A    between atoms: _788  and  _789
REMARK                            x       y       z     vdW  Elec       q    Type
REMARK                         _______ _______ _______ _____ _____    ______ ____
ROOT
ATOM      1  O   HOH     1      22.455  25.086 -15.191  0.00  0.00    +0.000 OA
ENDROOT
TORSDOF 0
REMARK  Name = ../refined-set-2016/3o4k/3o4k_pocket.pdb
REMARK  297 active torsions:
REMARK  status: ('A' for Active; 'I' for Inactive)
REMARK    1  A    between atoms: _1  and  _3
REMARK    2  A    between atoms: _3  and  _4
REMARK    3  A    between atoms: _3  and  _6
REMARK    4  A    between atoms: _6  and  _7
REMARK    5  A    between atoms: _7  and  _8
REMARK    6  A    between atoms: _8  and  _9
REMARK    7  A    between atoms: _18  and  _20
REMARK    8  A    between atoms: _20  and  _21
REMARK    9  A    between atoms: _20  and  _23
REMARK   10  A    between atoms: _23  and  _24
REMARK   11  A    between atoms: _29  and  _30
REMARK   12  A    between atoms: _32  and  _34
REMARK   13  A    between atoms: _34  and  _35
REMARK   14  A    between atoms: _34  and  _37
REMARK   15  A    between atoms: _37  and  _38
REMARK   16  A    between atoms: _48  and  _50
REMARK   17  A    between atoms: _50  and  _51
REMARK   18  A    between atoms: _50  and  _53
REMARK   19  A    between atoms: _53  and  _54
REMARK   20  A    between atoms: _54  and  _55
REMARK   21  A    between atoms: _55  and  _56
REMARK   22  A    between atoms: _65  and  _67
REMARK   23  A    between atoms: _67  and  _68
REMARK   24  A    between atoms: _67  and  _70
REMARK   25  A    between atoms: _70  and  _71
REMARK   26  A    between atoms: _73  and  _75
REMARK   27  A    between atoms: _75  and  _76
REMARK   28  A    between atoms: _75  and  _78
REMARK   29  A    between atoms: _78  and  _79
REMARK   30  A    between atoms: _84  and  _86
REMARK   31  A    between atoms: _86  and  _87
REMARK   32  A    between atoms: _86  and  _89
REMARK   33  A    between atoms: _89  and  _90
REMARK   34  A    between atoms: _95  and  _96
REMARK   35  A    between atoms: _98  and  _100
REMARK   36  A    between atoms: _100  and  _101
REMARK   37  A    between atoms: _100  and  _103
REMARK   38  A    between atoms: _103  and  _104
REMARK   39  A    between atoms: _104  and  _105
REMARK   40  A    between atoms: _108  and  _110
REMARK   41  A    between atoms: _110  and  _111
REMARK   42  A    between atoms: _110  and  _113
REMARK   43  A    between atoms: _116  and  _118
REMARK   44  A    between atoms: _118  and  _119
REMARK   45  A    between atoms: _118  and  _121
REMARK   46  A    between atoms: _121  and  _122
REMARK   47  A    between atoms: _122  and  _123
REMARK   48  A    between atoms: _123  and  _124
REMARK   49  A    between atoms: _124  and  _125
REMARK   50  A    between atoms: _129  and  _131
REMARK   51  A    between atoms: _131  and  _132
REMARK   52  A    between atoms: _131  and  _134
REMARK   53  A    between atoms: _134  and  _135
REMARK   54  A    between atoms: _140  and  _142
REMARK   55  A    between atoms: _142  and  _143
REMARK   56  A    between atoms: _142  and  _145
REMARK   57  A    between atoms: _145  and  _146
REMARK   58  A    between atoms: _151  and  _152
REMARK   59  A    between atoms: _154  and  _156
REMARK   60  A    between atoms: _156  and  _157
REMARK   61  A    between atoms: _156  and  _159
REMARK   62  A    between atoms: _159  and  _160
REMARK   63  A    between atoms: _160  and  _161
REMARK   64  A    between atoms: _161  and  _162
REMARK   65  A    between atoms: _171  and  _173
REMARK   66  A    between atoms: _173  and  _174
REMARK   67  A    between atoms: _178  and  _180
REMARK   68  A    between atoms: _180  and  _181
REMARK   69  A    between atoms: _180  and  _183
REMARK   70  A    between atoms: _183  and  _184
REMARK   71  A    between atoms: _186  and  _188
REMARK   72  A    between atoms: _188  and  _189
REMARK   73  A    between atoms: _188  and  _191
REMARK   74  A    between atoms: _191  and  _192
REMARK   75  A    between atoms: _192  and  _193
REMARK   76  A    between atoms: _196  and  _198
REMARK   77  A    between atoms: _198  and  _199
REMARK   78  A    between atoms: _198  and  _201
REMARK   79  A    between atoms: _201  and  _202
REMARK   80  A    between atoms: _202  and  _352
REMARK   81  A    between atoms: _203  and  _205
REMARK   82  A    between atoms: _205  and  _206
REMARK   83  A    between atoms: _205  and  _208
REMARK   84  A    between atoms: _208  and  _209
REMARK   85  A    between atoms: _209  and  _210
REMARK   86  A    between atoms: _210  and  _211
REMARK   87  A    between atoms: _220  and  _222
REMARK   88  A    between atoms: _222  and  _223
REMARK   89  A    between atoms: _222  and  _225
REMARK   90  A    between atoms: _225  and  _226
REMARK   91  A    between atoms: _226  and  _227
REMARK   92  A    between atoms: _230  and  _232
REMARK   93  A    between atoms: _232  and  _233
REMARK   94  A    between atoms: _232  and  _235
REMARK   95  A    between atoms: _235  and  _236
REMARK   96  A    between atoms: _236  and  _237
REMARK   97  A    between atoms: _237  and  _238
REMARK   98  A    between atoms: _247  and  _249
REMARK   99  A    between atoms: _249  and  _250
REMARK  100  A    between atoms: _249  and  _252
REMARK  101  A    between atoms: _252  and  _253
REMARK  102  A    between atoms: _255  and  _257
REMARK  103  A    between atoms: _257  and  _258
REMARK  104  A    between atoms: _257  and  _260
REMARK  105  A    between atoms: _260  and  _261
REMARK  106  A    between atoms: _266  and  _267
REMARK  107  A    between atoms: _269  and  _271
REMARK  108  A    between atoms: _271  and  _272
REMARK  109  A    between atoms: _271  and  _274
REMARK  110  A    between atoms: _274  and  _275
REMARK  111  A    between atoms: _280  and  _282
REMARK  112  A    between atoms: _282  and  _283
REMARK  113  A    between atoms: _282  and  _285
REMARK  114  A    between atoms: _288  and  _290
REMARK  115  A    between atoms: _290  and  _291
REMARK  116  A    between atoms: _290  and  _293
REMARK  117  A    between atoms: _293  and  _294
REMARK  118  A    between atoms: _294  and  _295
REMARK  119  A    between atoms: _295  and  _296
REMARK  120  A    between atoms: _305  and  _307
REMARK  121  A    between atoms: _307  and  _308
REMARK  122  A    between atoms: _307  and  _310
REMARK  123  A    between atoms: _310  and  _311
REMARK  124  A    between atoms: _316  and  _318
REMARK  125  A    between atoms: _318  and  _319
REMARK  126  A    between atoms: _318  and  _321
REMARK  127  A    between atoms: _321  and  _322
REMARK  128  A    between atoms: _325  and  _327
REMARK  129  A    between atoms: _327  and  _328
REMARK  130  A    between atoms: _330  and  _332
REMARK  131  A    between atoms: _332  and  _333
REMARK  132  A    between atoms: _332  and  _335
REMARK  133  A    between atoms: _335  and  _336
REMARK  134  A    between atoms: _346  and  _348
REMARK  135  A    between atoms: _348  and  _349
REMARK  136  A    between atoms: _348  and  _351
REMARK  137  A    between atoms: _351  and  _352
REMARK  138  A    between atoms: _353  and  _355
REMARK  139  A    between atoms: _355  and  _356
REMARK  140  A    between atoms: _355  and  _358
REMARK  141  A    between atoms: _358  and  _359
REMARK  142  A    between atoms: _362  and  _364
REMARK  143  A    between atoms: _364  and  _365
REMARK  144  A    between atoms: _367  and  _369
REMARK  145  A    between atoms: _369  and  _370
REMARK  146  A    between atoms: _369  and  _372
REMARK  147  A    between atoms: _372  and  _373
REMARK  148  A    between atoms: _378  and  _379
REMARK  149  A    between atoms: _381  and  _383
REMARK  150  A    between atoms: _383  and  _384
REMARK  151  A    between atoms: _383  and  _386
REMARK  152  A    between atoms: _386  and  _387
REMARK  153  A    between atoms: _387  and  _388
REMARK  154  A    between atoms: _388  and  _389
REMARK  155  A    between atoms: _398  and  _400
REMARK  156  A    between atoms: _400  and  _401
REMARK  157  A    between atoms: _400  and  _403
REMARK  158  A    between atoms: _403  and  _404
REMARK  159  A    between atoms: _407  and  _409
REMARK  160  A    between atoms: _409  and  _410
REMARK  161  A    between atoms: _409  and  _412
REMARK  162  A    between atoms: _412  and  _413
REMARK  163  A    between atoms: _413  and  _414
REMARK  164  A    between atoms: _414  and  _415
REMARK  165  A    between atoms: _415  and  _416
REMARK  166  A    between atoms: _420  and  _422
REMARK  167  A    between atoms: _422  and  _423
REMARK  168  A    between atoms: _425  and  _427
REMARK  169  A    between atoms: _427  and  _428
REMARK  170  A    between atoms: _431  and  _433
REMARK  171  A    between atoms: _433  and  _434
REMARK  172  A    between atoms: _433  and  _436
REMARK  173  A    between atoms: _436  and  _437
REMARK  174  A    between atoms: _442  and  _444
REMARK  175  A    between atoms: _444  and  _445
REMARK  176  A    between atoms: _448  and  _450
REMARK  177  A    between atoms: _450  and  _451
REMARK  178  A    between atoms: _454  and  _455
REMARK  179  A    between atoms: _460  and  _462
REMARK  180  A    between atoms: _462  and  _463
REMARK  181  A    between atoms: _462  and  _465
REMARK  182  A    between atoms: _465  and  _466
REMARK  183  A    between atoms: _469  and  _471
REMARK  184  A    between atoms: _471  and  _472
REMARK  185  A    between atoms: _471  and  _474
REMARK  186  A    between atoms: _474  and  _475
REMARK  187  A    between atoms: _485  and  _487
REMARK  188  A    between atoms: _487  and  _488
REMARK  189  A    between atoms: _487  and  _490
REMARK  190  A    between atoms: _490  and  _491
REMARK  191  A    between atoms: _497  and  _498
REMARK  192  A    between atoms: _503  and  _505
REMARK  193  A    between atoms: _505  and  _506
REMARK  194  A    between atoms: _505  and  _508
REMARK  195  A    between atoms: _508  and  _509
REMARK  196  A    between atoms: _514  and  _516
REMARK  197  A    between atoms: _516  and  _517
REMARK  198  A    between atoms: _516  and  _519
REMARK  199  A    between atoms: _522  and  _524
REMARK  200  A    between atoms: _524  and  _525
REMARK  201  A    between atoms: _524  and  _527
REMARK  202  A    between atoms: _527  and  _528
REMARK  203  A    between atoms: _528  and  _529
REMARK  204  A    between atoms: _535  and  _536
REMARK  205  A    between atoms: _541  and  _543
REMARK  206  A    between atoms: _543  and  _544
REMARK  207  A    between atoms: _543  and  _546
REMARK  208  A    between atoms: _546  and  _547
REMARK  209  A    between atoms: _550  and  _552
REMARK  210  A    between atoms: _552  and  _553
REMARK  211  A    between atoms: _552  and  _555
REMARK  212  A    between atoms: _555  and  _556
REMARK  213  A    between atoms: _558  and  _560
REMARK  214  A    between atoms: _560  and  _561
REMARK  215  A    between atoms: _560  and  _563
REMARK  216  A    between atoms: _563  and  _564
REMARK  217  A    between atoms: _569  and  _570
REMARK  218  A    between atoms: _572  and  _574
REMARK  219  A    between atoms: _574  and  _575
REMARK  220  A    between atoms: _574  and  _577
REMARK  221  A    between atoms: _577  and  _578
REMARK  222  A    between atoms: _588  and  _590
REMARK  223  A    between atoms: _590  and  _591
REMARK  224  A    between atoms: _593  and  _595
REMARK  225  A    between atoms: _595  and  _596
REMARK  226  A    between atoms: _599  and  _601
REMARK  227  A    between atoms: _601  and  _602
REMARK  228  A    between atoms: _601  and  _604
REMARK  229  A    between atoms: _604  and  _605
REMARK  230  A    between atoms: _610  and  _612
REMARK  231  A    between atoms: _612  and  _613
REMARK  232  A    between atoms: _616  and  _618
REMARK  233  A    between atoms: _618  and  _619
REMARK  234  A    between atoms: _622  and  _623
REMARK  235  A    between atoms: _628  and  _630
REMARK  236  A    between atoms: _630  and  _631
REMARK  237  A    between atoms: _630  and  _633
REMARK  238  A    between atoms: _633  and  _634
REMARK  239  A    between atoms: _637  and  _639
REMARK  240  A    between atoms: _639  and  _640
REMARK  241  A    between atoms: _639  and  _642
REMARK  242  A    between atoms: _642  and  _643
REMARK  243  A    between atoms: _653  and  _655
REMARK  244  A    between atoms: _655  and  _656
REMARK  245  A    between atoms: _655  and  _658
REMARK  246  A    between atoms: _658  and  _659
REMARK  247  A    between atoms: _664  and  _666
REMARK  248  A    between atoms: _666  and  _667
REMARK  249  A    between atoms: _666  and  _669
REMARK  250  A    between atoms: _669  and  _670
REMARK  251  A    between atoms: _673  and  _675
REMARK  252  A    between atoms: _675  and  _676
REMARK  253  A    between atoms: _675  and  _678
REMARK  254  A    between atoms: _678  and  _679
REMARK  255  A    between atoms: _679  and  _680
REMARK  256  A    between atoms: _683  and  _685
REMARK  257  A    between atoms: _685  and  _686
REMARK  258  A    between atoms: _685  and  _688
REMARK  259  A    between atoms: _688  and  _689
REMARK  260  A    between atoms: _689  and  _690
REMARK  261  A    between atoms: _690  and  _691
REMARK  262  A    between atoms: _691  and  _692
REMARK  263  A    between atoms: _696  and  _698
REMARK  264  A    between atoms: _698  and  _699
REMARK  265  A    between atoms: _698  and  _701
REMARK  266  A    between atoms: _701  and  _702
REMARK  267  A    between atoms: _707  and  _709
REMARK  268  A    between atoms: _709  and  _710
REMARK  269  A    between atoms: _709  and  _712
REMARK  270  A    between atoms: _712  and  _713
REMARK  271  A    between atoms: _713  and  _714
REMARK  272  A    between atoms: _714  and  _715
REMARK  273  A    between atoms: _724  and  _726
REMARK  274  A    between atoms: _726  and  _727
REMARK  275  A    between atoms: _726  and  _729
REMARK  276  A    between atoms: _729  and  _730
REMARK  277  A    between atoms: _733  and  _735
REMARK  278  A    between atoms: _735  and  _736
REMARK  279  A    between atoms: _735  and  _738
REMARK  280  A    between atoms: _741  and  _743
REMARK  281  A    between atoms: _743  and  _744
REMARK  282  A    between atoms: _743  and  _746
REMARK  283  A    between atoms: _746  and  _747
REMARK  284  A    between atoms: _747  and  _748
REMARK  285  A    between atoms: _754  and  _755
REMARK  286  A    between atoms: _760  and  _762
REMARK  287  A    between atoms: _762  and  _763
REMARK  288  A    between atoms: _762  and  _765
REMARK  289  A    between atoms: _765  and  _766
REMARK  290  A    between atoms: _769  and  _771
REMARK  291  A    between atoms: _771  and  _772
REMARK  292  A    between atoms: _771  and  _774
REMARK  293  A    between atoms: _774  and  _775
REMARK  294  A    between atoms: _775  and  _776
REMARK  295  A    between atoms: _776  and  _777
REMARK  296  A    between atoms: _786  and  _788
REMARK  297  A    between atoms: _788  and  _789
REMARK                            x       y       z     vdW  Elec       q    Type
REMARK                         _______ _______ _______ _____ _____    ______ ____
ROOT
ATOM      1  O   HOH     1      12.421  19.134 -11.298  0.00  0.00    +0.000 OA
ENDROOT
TORSDOF 0
REMARK  Name = ../refined-set-2016/3o4k/3o4k_pocket.pdb
REMARK  297 active torsions:
REMARK  status: ('A' for Active; 'I' for Inactive)
REMARK    1  A    between atoms: _1  and  _3
REMARK    2  A    between atoms: _3  and  _4
REMARK    3  A    between atoms: _3  and  _6
REMARK    4  A    between atoms: _6  and  _7
REMARK    5  A    between atoms: _7  and  _8
REMARK    6  A    between atoms: _8  and  _9
REMARK    7  A    between atoms: _18  and  _20
REMARK    8  A    between atoms: _20  and  _21
REMARK    9  A    between atoms: _20  and  _23
REMARK   10  A    between atoms: _23  and  _24
REMARK   11  A    between atoms: _29  and  _30
REMARK   12  A    between atoms: _32  and  _34
REMARK   13  A    between atoms: _34  and  _35
REMARK   14  A    between atoms: _34  and  _37
REMARK   15  A    between atoms: _37  and  _38
REMARK   16  A    between atoms: _48  and  _50
REMARK   17  A    between atoms: _50  and  _51
REMARK   18  A    between atoms: _50  and  _53
REMARK   19  A    between atoms: _53  and  _54
REMARK   20  A    between atoms: _54  and  _55
REMARK   21  A    between atoms: _55  and  _56
REMARK   22  A    between atoms: _65  and  _67
REMARK   23  A    between atoms: _67  and  _68
REMARK   24  A    between atoms: _67  and  _70
REMARK   25  A    between atoms: _70  and  _71
REMARK   26  A    between atoms: _73  and  _75
REMARK   27  A    between atoms: _75  and  _76
REMARK   28  A    between atoms: _75  and  _78
REMARK   29  A    between atoms: _78  and  _79
REMARK   30  A    between atoms: _84  and  _86
REMARK   31  A    between atoms: _86  and  _87
REMARK   32  A    between atoms: _86  and  _89
REMARK   33  A    between atoms: _89  and  _90
REMARK   34  A    between atoms: _95  and  _96
REMARK   35  A    between atoms: _98  and  _100
REMARK   36  A    between atoms: _100  and  _101
REMARK   37  A    between atoms: _100  and  _103
REMARK   38  A    between atoms: _103  and  _104
REMARK   39  A    between atoms: _104  and  _105
REMARK   40  A    between atoms: _108  and  _110
REMARK   41  A    between atoms: _110  and  _111
REMARK   42  A    between atoms: _110  and  _113
REMARK   43  A    between atoms: _116  and  _118
REMARK   44  A    between atoms: _118  and  _119
REMARK   45  A    between atoms: _118  and  _121
REMARK   46  A    between atoms: _121  and  _122
REMARK   47  A    between atoms: _122  and  _123
REMARK   48  A    between atoms: _123  and  _124
REMARK   49  A    between atoms: _124  and  _125
REMARK   50  A    between atoms: _129  and  _131
REMARK   51  A    between atoms: _131  and  _132
REMARK   52  A    between atoms: _131  and  _134
REMARK   53  A    between atoms: _134  and  _135
REMARK   54  A    between atoms: _140  and  _142
REMARK   55  A    between atoms: _142  and  _143
REMARK   56  A    between atoms: _142  and  _145
REMARK   57  A    between atoms: _145  and  _146
REMARK   58  A    between atoms: _151  and  _152
REMARK   59  A    between atoms: _154  and  _156
REMARK   60  A    between atoms: _156  and  _157
REMARK   61  A    between atoms: _156  and  _159
REMARK   62  A    between atoms: _159  and  _160
REMARK   63  A    between atoms: _160  and  _161
REMARK   64  A    between atoms: _161  and  _162
REMARK   65  A    between atoms: _171  and  _173
REMARK   66  A    between atoms: _173  and  _174
REMARK   67  A    between atoms: _178  and  _180
REMARK   68  A    between atoms: _180  and  _181
REMARK   69  A    between atoms: _180  and  _183
REMARK   70  A    between atoms: _183  and  _184
REMARK   71  A    between atoms: _186  and  _188
REMARK   72  A    between atoms: _188  and  _189
REMARK   73  A    between atoms: _188  and  _191
REMARK   74  A    between atoms: _191  and  _192
REMARK   75  A    between atoms: _192  and  _193
REMARK   76  A    between atoms: _196  and  _198
REMARK   77  A    between atoms: _198  and  _199
REMARK   78  A    between atoms: _198  and  _201
REMARK   79  A    between atoms: _201  and  _202
REMARK   80  A    between atoms: _202  and  _352
REMARK   81  A    between atoms: _203  and  _205
REMARK   82  A    between atoms: _205  and  _206
REMARK   83  A    between atoms: _205  and  _208
REMARK   84  A    between atoms: _208  and  _209
REMARK   85  A    between atoms: _209  and  _210
REMARK   86  A    between atoms: _210  and  _211
REMARK   87  A    between atoms: _220  and  _222
REMARK   88  A    between atoms: _222  and  _223
REMARK   89  A    between atoms: _222  and  _225
REMARK   90  A    between atoms: _225  and  _226
REMARK   91  A    between atoms: _226  and  _227
REMARK   92  A    between atoms: _230  and  _232
REMARK   93  A    between atoms: _232  and  _233
REMARK   94  A    between atoms: _232  and  _235
REMARK   95  A    between atoms: _235  and  _236
REMARK   96  A    between atoms: _236  and  _237
REMARK   97  A    between atoms: _237  and  _238
REMARK   98  A    between atoms: _247  and  _249
REMARK   99  A    between atoms: _249  and  _250
REMARK  100  A    between atoms: _249  and  _252
REMARK  101  A    between atoms: _252  and  _253
REMARK  102  A    between atoms: _255  and  _257
REMARK  103  A    between atoms: _257  and  _258
REMARK  104  A    between atoms: _257  and  _260
REMARK  105  A    between atoms: _260  and  _261
REMARK  106  A    between atoms: _266  and  _267
REMARK  107  A    between atoms: _269  and  _271
REMARK  108  A    between atoms: _271  and  _272
REMARK  109  A    between atoms: _271  and  _274
REMARK  110  A    between atoms: _274  and  _275
REMARK  111  A    between atoms: _280  and  _282
REMARK  112  A    between atoms: _282  and  _283
REMARK  113  A    between atoms: _282  and  _285
REMARK  114  A    between atoms: _288  and  _290
REMARK  115  A    between atoms: _290  and  _291
REMARK  116  A    between atoms: _290  and  _293
REMARK  117  A    between atoms: _293  and  _294
REMARK  118  A    between atoms: _294  and  _295
REMARK  119  A    between atoms: _295  and  _296
REMARK  120  A    between atoms: _305  and  _307
REMARK  121  A    between atoms: _307  and  _308
REMARK  122  A    between atoms: _307  and  _310
REMARK  123  A    between atoms: _310  and  _311
REMARK  124  A    between atoms: _316  and  _318
REMARK  125  A    between atoms: _318  and  _319
REMARK  126  A    between atoms: _318  and  _321
REMARK  127  A    between atoms: _321  and  _322
REMARK  128  A    between atoms: _325  and  _327
REMARK  129  A    between atoms: _327  and  _328
REMARK  130  A    between atoms: _330  and  _332
REMARK  131  A    between atoms: _332  and  _333
REMARK  132  A    between atoms: _332  and  _335
REMARK  133  A    between atoms: _335  and  _336
REMARK  134  A    between atoms: _346  and  _348
REMARK  135  A    between atoms: _348  and  _349
REMARK  136  A    between atoms: _348  and  _351
REMARK  137  A    between atoms: _351  and  _352
REMARK  138  A    between atoms: _353  and  _355
REMARK  139  A    between atoms: _355  and  _356
REMARK  140  A    between atoms: _355  and  _358
REMARK  141  A    between atoms: _358  and  _359
REMARK  142  A    between atoms: _362  and  _364
REMARK  143  A    between atoms: _364  and  _365
REMARK  144  A    between atoms: _367  and  _369
REMARK  145  A    between atoms: _369  and  _370
REMARK  146  A    between atoms: _369  and  _372
REMARK  147  A    between atoms: _372  and  _373
REMARK  148  A    between atoms: _378  and  _379
REMARK  149  A    between atoms: _381  and  _383
REMARK  150  A    between atoms: _383  and  _384
REMARK  151  A    between atoms: _383  and  _386
REMARK  152  A    between atoms: _386  and  _387
REMARK  153  A    between atoms: _387  and  _388
REMARK  154  A    between atoms: _388  and  _389
REMARK  155  A    between atoms: _398  and  _400
REMARK  156  A    between atoms: _400  and  _401
REMARK  157  A    between atoms: _400  and  _403
REMARK  158  A    between atoms: _403  and  _404
REMARK  159  A    between atoms: _407  and  _409
REMARK  160  A    between atoms: _409  and  _410
REMARK  161  A    between atoms: _409  and  _412
REMARK  162  A    between atoms: _412  and  _413
REMARK  163  A    between atoms: _413  and  _414
REMARK  164  A    between atoms: _414  and  _415
REMARK  165  A    between atoms: _415  and  _416
REMARK  166  A    between atoms: _420  and  _422
REMARK  167  A    between atoms: _422  and  _423
REMARK  168  A    between atoms: _425  and  _427
REMARK  169  A    between atoms: _427  and  _428
REMARK  170  A    between atoms: _431  and  _433
REMARK  171  A    between atoms: _433  and  _434
REMARK  172  A    between atoms: _433  and  _436
REMARK  173  A    between atoms: _436  and  _437
REMARK  174  A    between atoms: _442  and  _444
REMARK  175  A    between atoms: _444  and  _445
REMARK  176  A    between atoms: _448  and  _450
REMARK  177  A    between atoms: _450  and  _451
REMARK  178  A    between atoms: _454  and  _455
REMARK  179  A    between atoms: _460  and  _462
REMARK  180  A    between atoms: _462  and  _463
REMARK  181  A    between atoms: _462  and  _465
REMARK  182  A    between atoms: _465  and  _466
REMARK  183  A    between atoms: _469  and  _471
REMARK  184  A    between atoms: _471  and  _472
REMARK  185  A    between atoms: _471  and  _474
REMARK  186  A    between atoms: _474  and  _475
REMARK  187  A    between atoms: _485  and  _487
REMARK  188  A    between atoms: _487  and  _488
REMARK  189  A    between atoms: _487  and  _490
REMARK  190  A    between atoms: _490  and  _491
REMARK  191  A    between atoms: _497  and  _498
REMARK  192  A    between atoms: _503  and  _505
REMARK  193  A    between atoms: _505  and  _506
REMARK  194  A    between atoms: _505  and  _508
REMARK  195  A    between atoms: _508  and  _509
REMARK  196  A    between atoms: _514  and  _516
REMARK  197  A    between atoms: _516  and  _517
REMARK  198  A    between atoms: _516  and  _519
REMARK  199  A    between atoms: _522  and  _524
REMARK  200  A    between atoms: _524  and  _525
REMARK  201  A    between atoms: _524  and  _527
REMARK  202  A    between atoms: _527  and  _528
REMARK  203  A    between atoms: _528  and  _529
REMARK  204  A    between atoms: _535  and  _536
REMARK  205  A    between atoms: _541  and  _543
REMARK  206  A    between atoms: _543  and  _544
REMARK  207  A    between atoms: _543  and  _546
REMARK  208  A    between atoms: _546  and  _547
REMARK  209  A    between atoms: _550  and  _552
REMARK  210  A    between atoms: _552  and  _553
REMARK  211  A    between atoms: _552  and  _555
REMARK  212  A    between atoms: _555  and  _556
REMARK  213  A    between atoms: _558  and  _560
REMARK  214  A    between atoms: _560  and  _561
REMARK  215  A    between atoms: _560  and  _563
REMARK  216  A    between atoms: _563  and  _564
REMARK  217  A    between atoms: _569  and  _570
REMARK  218  A    between atoms: _572  and  _574
REMARK  219  A    between atoms: _574  and  _575
REMARK  220  A    between atoms: _574  and  _577
REMARK  221  A    between atoms: _577  and  _578
REMARK  222  A    between atoms: _588  and  _590
REMARK  223  A    between atoms: _590  and  _591
REMARK  224  A    between atoms: _593  and  _595
REMARK  225  A    between atoms: _595  and  _596
REMARK  226  A    between atoms: _599  and  _601
REMARK  227  A    between atoms: _601  and  _602
REMARK  228  A    between atoms: _601  and  _604
REMARK  229  A    between atoms: _604  and  _605
REMARK  230  A    between atoms: _610  and  _612
REMARK  231  A    between atoms: _612  and  _613
REMARK  232  A    between atoms: _616  and  _618
REMARK  233  A    between atoms: _618  and  _619
REMARK  234  A    between atoms: _622  and  _623
REMARK  235  A    between atoms: _628  and  _630
REMARK  236  A    between atoms: _630  and  _631
REMARK  237  A    between atoms: _630  and  _633
REMARK  238  A    between atoms: _633  and  _634
REMARK  239  A    between atoms: _637  and  _639
REMARK  240  A    between atoms: _639  and  _640
REMARK  241  A    between atoms: _639  and  _642
REMARK  242  A    between atoms: _642  and  _643
REMARK  243  A    between atoms: _653  and  _655
REMARK  244  A    between atoms: _655  and  _656
REMARK  245  A    between atoms: _655  and  _658
REMARK  246  A    between atoms: _658  and  _659
REMARK  247  A    between atoms: _664  and  _666
REMARK  248  A    between atoms: _666  and  _667
REMARK  249  A    between atoms: _666  and  _669
REMARK  250  A    between atoms: _669  and  _670
REMARK  251  A    between atoms: _673  and  _675
REMARK  252  A    between atoms: _675  and  _676
REMARK  253  A    between atoms: _675  and  _678
REMARK  254  A    between atoms: _678  and  _679
REMARK  255  A    between atoms: _679  and  _680
REMARK  256  A    between atoms: _683  and  _685
REMARK  257  A    between atoms: _685  and  _686
REMARK  258  A    between atoms: _685  and  _688
REMARK  259  A    between atoms: _688  and  _689
REMARK  260  A    between atoms: _689  and  _690
REMARK  261  A    between atoms: _690  and  _691
REMARK  262  A    between atoms: _691  and  _692
REMARK  263  A    between atoms: _696  and  _698
REMARK  264  A    between atoms: _698  and  _699
REMARK  265  A    between atoms: _698  and  _701
REMARK  266  A    between atoms: _701  and  _702
REMARK  267  A    between atoms: _707  and  _709
REMARK  268  A    between atoms: _709  and  _710
REMARK  269  A    between atoms: _709  and  _712
REMARK  270  A    between atoms: _712  and  _713
REMARK  271  A    between atoms: _713  and  _714
REMARK  272  A    between atoms: _714  and  _715
REMARK  273  A    between atoms: _724  and  _726
REMARK  274  A    between atoms: _726  and  _727
REMARK  275  A    between atoms: _726  and  _729
REMARK  276  A    between atoms: _729  and  _730
REMARK  277  A    between atoms: _733  and  _735
REMARK  278  A    between atoms: _735  and  _736
REMARK  279  A    between atoms: _735  and  _738
REMARK  280  A    between atoms: _741  and  _743
REMARK  281  A    between atoms: _743  and  _744
REMARK  282  A    between atoms: _743  and  _746
REMARK  283  A    between atoms: _746  and  _747
REMARK  284  A    between atoms: _747  and  _748
REMARK  285  A    between atoms: _754  and  _755
REMARK  286  A    between atoms: _760  and  _762
REMARK  287  A    between atoms: _762  and  _763
REMARK  288  A    between atoms: _762  and  _765
REMARK  289  A    between atoms: _765  and  _766
REMARK  290  A    between atoms: _769  and  _771
REMARK  291  A    between atoms: _771  and  _772
REMARK  292  A    between atoms: _771  and  _774
REMARK  293  A    between atoms: _774  and  _775
REMARK  294  A    between atoms: _775  and  _776
REMARK  295  A    between atoms: _776  and  _777
REMARK  296  A    between atoms: _786  and  _788
REMARK  297  A    between atoms: _788  and  _789
REMARK                            x       y       z     vdW  Elec       q    Type
REMARK                         _______ _______ _______ _____ _____    ______ ____
ROOT
ATOM      1  O   HOH     1      17.829  19.367 -10.603  0.00  0.00    +0.000 OA
ENDROOT
TORSDOF 0
REMARK  Name = ../refined-set-2016/3o4k/3o4k_pocket.pdb
REMARK  297 active torsions:
REMARK  status: ('A' for Active; 'I' for Inactive)
REMARK    1  A    between atoms: _1  and  _3
REMARK    2  A    between atoms: _3  and  _4
REMARK    3  A    between atoms: _3  and  _6
REMARK    4  A    between atoms: _6  and  _7
REMARK    5  A    between atoms: _7  and  _8
REMARK    6  A    between atoms: _8  and  _9
REMARK    7  A    between atoms: _18  and  _20
REMARK    8  A    between atoms: _20  and  _21
REMARK    9  A    between atoms: _20  and  _23
REMARK   10  A    between atoms: _23  and  _24
REMARK   11  A    between atoms: _29  and  _30
REMARK   12  A    between atoms: _32  and  _34
REMARK   13  A    between atoms: _34  and  _35
REMARK   14  A    between atoms: _34  and  _37
REMARK   15  A    between atoms: _37  and  _38
REMARK   16  A    between atoms: _48  and  _50
REMARK   17  A    between atoms: _50  and  _51
REMARK   18  A    between atoms: _50  and  _53
REMARK   19  A    between atoms: _53  and  _54
REMARK   20  A    between atoms: _54  and  _55
REMARK   21  A    between atoms: _55  and  _56
REMARK   22  A    between atoms: _65  and  _67
REMARK   23  A    between atoms: _67  and  _68
REMARK   24  A    between atoms: _67  and  _70
REMARK   25  A    between atoms: _70  and  _71
REMARK   26  A    between atoms: _73  and  _75
REMARK   27  A    between atoms: _75  and  _76
REMARK   28  A    between atoms: _75  and  _78
REMARK   29  A    between atoms: _78  and  _79
REMARK   30  A    between atoms: _84  and  _86
REMARK   31  A    between atoms: _86  and  _87
REMARK   32  A    between atoms: _86  and  _89
REMARK   33  A    between atoms: _89  and  _90
REMARK   34  A    between atoms: _95  and  _96
REMARK   35  A    between atoms: _98  and  _100
REMARK   36  A    between atoms: _100  and  _101
REMARK   37  A    between atoms: _100  and  _103
REMARK   38  A    between atoms: _103  and  _104
REMARK   39  A    between atoms: _104  and  _105
REMARK   40  A    between atoms: _108  and  _110
REMARK   41  A    between atoms: _110  and  _111
REMARK   42  A    between atoms: _110  and  _113
REMARK   43  A    between atoms: _116  and  _118
REMARK   44  A    between atoms: _118  and  _119
REMARK   45  A    between atoms: _118  and  _121
REMARK   46  A    between atoms: _121  and  _122
REMARK   47  A    between atoms: _122  and  _123
REMARK   48  A    between atoms: _123  and  _124
REMARK   49  A    between atoms: _124  and  _125
REMARK   50  A    between atoms: _129  and  _131
REMARK   51  A    between atoms: _131  and  _132
REMARK   52  A    between atoms: _131  and  _134
REMARK   53  A    between atoms: _134  and  _135
REMARK   54  A    between atoms: _140  and  _142
REMARK   55  A    between atoms: _142  and  _143
REMARK   56  A    between atoms: _142  and  _145
REMARK   57  A    between atoms: _145  and  _146
REMARK   58  A    between atoms: _151  and  _152
REMARK   59  A    between atoms: _154  and  _156
REMARK   60  A    between atoms: _156  and  _157
REMARK   61  A    between atoms: _156  and  _159
REMARK   62  A    between atoms: _159  and  _160
REMARK   63  A    between atoms: _160  and  _161
REMARK   64  A    between atoms: _161  and  _162
REMARK   65  A    between atoms: _171  and  _173
REMARK   66  A    between atoms: _173  and  _174
REMARK   67  A    between atoms: _178  and  _180
REMARK   68  A    between atoms: _180  and  _181
REMARK   69  A    between atoms: _180  and  _183
REMARK   70  A    between atoms: _183  and  _184
REMARK   71  A    between atoms: _186  and  _188
REMARK   72  A    between atoms: _188  and  _189
REMARK   73  A    between atoms: _188  and  _191
REMARK   74  A    between atoms: _191  and  _192
REMARK   75  A    between atoms: _192  and  _193
REMARK   76  A    between atoms: _196  and  _198
REMARK   77  A    between atoms: _198  and  _199
REMARK   78  A    between atoms: _198  and  _201
REMARK   79  A    between atoms: _201  and  _202
REMARK   80  A    between atoms: _202  and  _352
REMARK   81  A    between atoms: _203  and  _205
REMARK   82  A    between atoms: _205  and  _206
REMARK   83  A    between atoms: _205  and  _208
REMARK   84  A    between atoms: _208  and  _209
REMARK   85  A    between atoms: _209  and  _210
REMARK   86  A    between atoms: _210  and  _211
REMARK   87  A    between atoms: _220  and  _222
REMARK   88  A    between atoms: _222  and  _223
REMARK   89  A    between atoms: _222  and  _225
REMARK   90  A    between atoms: _225  and  _226
REMARK   91  A    between atoms: _226  and  _227
REMARK   92  A    between atoms: _230  and  _232
REMARK   93  A    between atoms: _232  and  _233
REMARK   94  A    between atoms: _232  and  _235
REMARK   95  A    between atoms: _235  and  _236
REMARK   96  A    between atoms: _236  and  _237
REMARK   97  A    between atoms: _237  and  _238
REMARK   98  A    between atoms: _247  and  _249
REMARK   99  A    between atoms: _249  and  _250
REMARK  100  A    between atoms: _249  and  _252
REMARK  101  A    between atoms: _252  and  _253
REMARK  102  A    between atoms: _255  and  _257
REMARK  103  A    between atoms: _257  and  _258
REMARK  104  A    between atoms: _257  and  _260
REMARK  105  A    between atoms: _260  and  _261
REMARK  106  A    between atoms: _266  and  _267
REMARK  107  A    between atoms: _269  and  _271
REMARK  108  A    between atoms: _271  and  _272
REMARK  109  A    between atoms: _271  and  _274
REMARK  110  A    between atoms: _274  and  _275
REMARK  111  A    between atoms: _280  and  _282
REMARK  112  A    between atoms: _282  and  _283
REMARK  113  A    between atoms: _282  and  _285
REMARK  114  A    between atoms: _288  and  _290
REMARK  115  A    between atoms: _290  and  _291
REMARK  116  A    between atoms: _290  and  _293
REMARK  117  A    between atoms: _293  and  _294
REMARK  118  A    between atoms: _294  and  _295
REMARK  119  A    between atoms: _295  and  _296
REMARK  120  A    between atoms: _305  and  _307
REMARK  121  A    between atoms: _307  and  _308
REMARK  122  A    between atoms: _307  and  _310
REMARK  123  A    between atoms: _310  and  _311
REMARK  124  A    between atoms: _316  and  _318
REMARK  125  A    between atoms: _318  and  _319
REMARK  126  A    between atoms: _318  and  _321
REMARK  127  A    between atoms: _321  and  _322
REMARK  128  A    between atoms: _325  and  _327
REMARK  129  A    between atoms: _327  and  _328
REMARK  130  A    between atoms: _330  and  _332
REMARK  131  A    between atoms: _332  and  _333
REMARK  132  A    between atoms: _332  and  _335
REMARK  133  A    between atoms: _335  and  _336
REMARK  134  A    between atoms: _346  and  _348
REMARK  135  A    between atoms: _348  and  _349
REMARK  136  A    between atoms: _348  and  _351
REMARK  137  A    between atoms: _351  and  _352
REMARK  138  A    between atoms: _353  and  _355
REMARK  139  A    between atoms: _355  and  _356
REMARK  140  A    between atoms: _355  and  _358
REMARK  141  A    between atoms: _358  and  _359
REMARK  142  A    between atoms: _362  and  _364
REMARK  143  A    between atoms: _364  and  _365
REMARK  144  A    between atoms: _367  and  _369
REMARK  145  A    between atoms: _369  and  _370
REMARK  146  A    between atoms: _369  and  _372
REMARK  147  A    between atoms: _372  and  _373
REMARK  148  A    between atoms: _378  and  _379
REMARK  149  A    between atoms: _381  and  _383
REMARK  150  A    between atoms: _383  and  _384
REMARK  151  A    between atoms: _383  and  _386
REMARK  152  A    between atoms: _386  and  _387
REMARK  153  A    between atoms: _387  and  _388
REMARK  154  A    between atoms: _388  and  _389
REMARK  155  A    between atoms: _398  and  _400
REMARK  156  A    between atoms: _400  and  _401
REMARK  157  A    between atoms: _400  and  _403
REMARK  158  A    between atoms: _403  and  _404
REMARK  159  A    between atoms: _407  and  _409
REMARK  160  A    between atoms: _409  and  _410
REMARK  161  A    between atoms: _409  and  _412
REMARK  162  A    between atoms: _412  and  _413
REMARK  163  A    between atoms: _413  and  _414
REMARK  164  A    between atoms: _414  and  _415
REMARK  165  A    between atoms: _415  and  _416
REMARK  166  A    between atoms: _420  and  _422
REMARK  167  A    between atoms: _422  and  _423
REMARK  168  A    between atoms: _425  and  _427
REMARK  169  A    between atoms: _427  and  _428
REMARK  170  A    between atoms: _431  and  _433
REMARK  171  A    between atoms: _433  and  _434
REMARK  172  A    between atoms: _433  and  _436
REMARK  173  A    between atoms: _436  and  _437
REMARK  174  A    between atoms: _442  and  _444
REMARK  175  A    between atoms: _444  and  _445
REMARK  176  A    between atoms: _448  and  _450
REMARK  177  A    between atoms: _450  and  _451
REMARK  178  A    between atoms: _454  and  _455
REMARK  179  A    between atoms: _460  and  _462
REMARK  180  A    between atoms: _462  and  _463
REMARK  181  A    between atoms: _462  and  _465
REMARK  182  A    between atoms: _465  and  _466
REMARK  183  A    between atoms: _469  and  _471
REMARK  184  A    between atoms: _471  and  _472
REMARK  185  A    between atoms: _471  and  _474
REMARK  186  A    between atoms: _474  and  _475
REMARK  187  A    between atoms: _485  and  _487
REMARK  188  A    between atoms: _487  and  _488
REMARK  189  A    between atoms: _487  and  _490
REMARK  190  A    between atoms: _490  and  _491
REMARK  191  A    between atoms: _497  and  _498
REMARK  192  A    between atoms: _503  and  _505
REMARK  193  A    between atoms: _505  and  _506
REMARK  194  A    between atoms: _505  and  _508
REMARK  195  A    between atoms: _508  and  _509
REMARK  196  A    between atoms: _514  and  _516
REMARK  197  A    between atoms: _516  and  _517
REMARK  198  A    between atoms: _516  and  _519
REMARK  199  A    between atoms: _522  and  _524
REMARK  200  A    between atoms: _524  and  _525
REMARK  201  A    between atoms: _524  and  _527
REMARK  202  A    between atoms: _527  and  _528
REMARK  203  A    between atoms: _528  and  _529
REMARK  204  A    between atoms: _535  and  _536
REMARK  205  A    between atoms: _541  and  _543
REMARK  206  A    between atoms: _543  and  _544
REMARK  207  A    between atoms: _543  and  _546
REMARK  208  A    between atoms: _546  and  _547
REMARK  209  A    between atoms: _550  and  _552
REMARK  210  A    between atoms: _552  and  _553
REMARK  211  A    between atoms: _552  and  _555
REMARK  212  A    between atoms: _555  and  _556
REMARK  213  A    between atoms: _558  and  _560
REMARK  214  A    between atoms: _560  and  _561
REMARK  215  A    between atoms: _560  and  _563
REMARK  216  A    between atoms: _563  and  _564
REMARK  217  A    between atoms: _569  and  _570
REMARK  218  A    between atoms: _572  and  _574
REMARK  219  A    between atoms: _574  and  _575
REMARK  220  A    between atoms: _574  and  _577
REMARK  221  A    between atoms: _577  and  _578
REMARK  222  A    between atoms: _588  and  _590
REMARK  223  A    between atoms: _590  and  _591
REMARK  224  A    between atoms: _593  and  _595
REMARK  225  A    between atoms: _595  and  _596
REMARK  226  A    between atoms: _599  and  _601
REMARK  227  A    between atoms: _601  and  _602
REMARK  228  A    between atoms: _601  and  _604
REMARK  229  A    between atoms: _604  and  _605
REMARK  230  A    between atoms: _610  and  _612
REMARK  231  A    between atoms: _612  and  _613
REMARK  232  A    between atoms: _616  and  _618
REMARK  233  A    between atoms: _618  and  _619
REMARK  234  A    between atoms: _622  and  _623
REMARK  235  A    between atoms: _628  and  _630
REMARK  236  A    between atoms: _630  and  _631
REMARK  237  A    between atoms: _630  and  _633
REMARK  238  A    between atoms: _633  and  _634
REMARK  239  A    between atoms: _637  and  _639
REMARK  240  A    between atoms: _639  and  _640
REMARK  241  A    between atoms: _639  and  _642
REMARK  242  A    between atoms: _642  and  _643
REMARK  243  A    between atoms: _653  and  _655
REMARK  244  A    between atoms: _655  and  _656
REMARK  245  A    between atoms: _655  and  _658
REMARK  246  A    between atoms: _658  and  _659
REMARK  247  A    between atoms: _664  and  _666
REMARK  248  A    between atoms: _666  and  _667
REMARK  249  A    between atoms: _666  and  _669
REMARK  250  A    between atoms: _669  and  _670
REMARK  251  A    between atoms: _673  and  _675
REMARK  252  A    between atoms: _675  and  _676
REMARK  253  A    between atoms: _675  and  _678
REMARK  254  A    between atoms: _678  and  _679
REMARK  255  A    between atoms: _679  and  _680
REMARK  256  A    between atoms: _683  and  _685
REMARK  257  A    between atoms: _685  and  _686
REMARK  258  A    between atoms: _685  and  _688
REMARK  259  A    between atoms: _688  and  _689
REMARK  260  A    between atoms: _689  and  _690
REMARK  261  A    between atoms: _690  and  _691
REMARK  262  A    between atoms: _691  and  _692
REMARK  263  A    between atoms: _696  and  _698
REMARK  264  A    between atoms: _698  and  _699
REMARK  265  A    between atoms: _698  and  _701
REMARK  266  A    between atoms: _701  and  _702
REMARK  267  A    between atoms: _707  and  _709
REMARK  268  A    between atoms: _709  and  _710
REMARK  269  A    between atoms: _709  and  _712
REMARK  270  A    between atoms: _712  and  _713
REMARK  271  A    between atoms: _713  and  _714
REMARK  272  A    between atoms: _714  and  _715
REMARK  273  A    between atoms: _724  and  _726
REMARK  274  A    between atoms: _726  and  _727
REMARK  275  A    between atoms: _726  and  _729
REMARK  276  A    between atoms: _729  and  _730
REMARK  277  A    between atoms: _733  and  _735
REMARK  278  A    between atoms: _735  and  _736
REMARK  279  A    between atoms: _735  and  _738
REMARK  280  A    between atoms: _741  and  _743
REMARK  281  A    between atoms: _743  and  _744
REMARK  282  A    between atoms: _743  and  _746
REMARK  283  A    between atoms: _746  and  _747
REMARK  284  A    between atoms: _747  and  _748
REMARK  285  A    between atoms: _754  and  _755
REMARK  286  A    between atoms: _760  and  _762
REMARK  287  A    between atoms: _762  and  _763
REMARK  288  A    between atoms: _762  and  _765
REMARK  289  A    between atoms: _765  and  _766
REMARK  290  A    between atoms: _769  and  _771
REMARK  291  A    between atoms: _771  and  _772
REMARK  292  A    between atoms: _771  and  _774
REMARK  293  A    between atoms: _774  and  _775
REMARK  294  A    between atoms: _775  and  _776
REMARK  295  A    between atoms: _776  and  _777
REMARK  296  A    between atoms: _786  and  _788
REMARK  297  A    between atoms: _788  and  _789
REMARK                            x       y       z     vdW  Elec       q    Type
REMARK                         _______ _______ _______ _____ _____    ______ ____
ROOT
ATOM      1  O   HOH     1      24.179  29.945 -18.088  0.00  0.00    +0.000 OA
ENDROOT
TORSDOF 0
REMARK  Name = ../refined-set-2016/3o4k/3o4k_pocket.pdb
REMARK  297 active torsions:
REMARK  status: ('A' for Active; 'I' for Inactive)
REMARK    1  A    between atoms: _1  and  _3
REMARK    2  A    between atoms: _3  and  _4
REMARK    3  A    between atoms: _3  and  _6
REMARK    4  A    between atoms: _6  and  _7
REMARK    5  A    between atoms: _7  and  _8
REMARK    6  A    between atoms: _8  and  _9
REMARK    7  A    between atoms: _18  and  _20
REMARK    8  A    between atoms: _20  and  _21
REMARK    9  A    between atoms: _20  and  _23
REMARK   10  A    between atoms: _23  and  _24
REMARK   11  A    between atoms: _29  and  _30
REMARK   12  A    between atoms: _32  and  _34
REMARK   13  A    between atoms: _34  and  _35
REMARK   14  A    between atoms: _34  and  _37
REMARK   15  A    between atoms: _37  and  _38
REMARK   16  A    between atoms: _48  and  _50
REMARK   17  A    between atoms: _50  and  _51
REMARK   18  A    between atoms: _50  and  _53
REMARK   19  A    between atoms: _53  and  _54
REMARK   20  A    between atoms: _54  and  _55
REMARK   21  A    between atoms: _55  and  _56
REMARK   22  A    between atoms: _65  and  _67
REMARK   23  A    between atoms: _67  and  _68
REMARK   24  A    between atoms: _67  and  _70
REMARK   25  A    between atoms: _70  and  _71
REMARK   26  A    between atoms: _73  and  _75
REMARK   27  A    between atoms: _75  and  _76
REMARK   28  A    between atoms: _75  and  _78
REMARK   29  A    between atoms: _78  and  _79
REMARK   30  A    between atoms: _84  and  _86
REMARK   31  A    between atoms: _86  and  _87
REMARK   32  A    between atoms: _86  and  _89
REMARK   33  A    between atoms: _89  and  _90
REMARK   34  A    between atoms: _95  and  _96
REMARK   35  A    between atoms: _98  and  _100
REMARK   36  A    between atoms: _100  and  _101
REMARK   37  A    between atoms: _100  and  _103
REMARK   38  A    between atoms: _103  and  _104
REMARK   39  A    between atoms: _104  and  _105
REMARK   40  A    between atoms: _108  and  _110
REMARK   41  A    between atoms: _110  and  _111
REMARK   42  A    between atoms: _110  and  _113
REMARK   43  A    between atoms: _116  and  _118
REMARK   44  A    between atoms: _118  and  _119
REMARK   45  A    between atoms: _118  and  _121
REMARK   46  A    between atoms: _121  and  _122
REMARK   47  A    between atoms: _122  and  _123
REMARK   48  A    between atoms: _123  and  _124
REMARK   49  A    between atoms: _124  and  _125
REMARK   50  A    between atoms: _129  and  _131
REMARK   51  A    between atoms: _131  and  _132
REMARK   52  A    between atoms: _131  and  _134
REMARK   53  A    between atoms: _134  and  _135
REMARK   54  A    between atoms: _140  and  _142
REMARK   55  A    between atoms: _142  and  _143
REMARK   56  A    between atoms: _142  and  _145
REMARK   57  A    between atoms: _145  and  _146
REMARK   58  A    between atoms: _151  and  _152
REMARK   59  A    between atoms: _154  and  _156
REMARK   60  A    between atoms: _156  and  _157
REMARK   61  A    between atoms: _156  and  _159
REMARK   62  A    between atoms: _159  and  _160
REMARK   63  A    between atoms: _160  and  _161
REMARK   64  A    between atoms: _161  and  _162
REMARK   65  A    between atoms: _171  and  _173
REMARK   66  A    between atoms: _173  and  _174
REMARK   67  A    between atoms: _178  and  _180
REMARK   68  A    between atoms: _180  and  _181
REMARK   69  A    between atoms: _180  and  _183
REMARK   70  A    between atoms: _183  and  _184
REMARK   71  A    between atoms: _186  and  _188
REMARK   72  A    between atoms: _188  and  _189
REMARK   73  A    between atoms: _188  and  _191
REMARK   74  A    between atoms: _191  and  _192
REMARK   75  A    between atoms: _192  and  _193
REMARK   76  A    between atoms: _196  and  _198
REMARK   77  A    between atoms: _198  and  _199
REMARK   78  A    between atoms: _198  and  _201
REMARK   79  A    between atoms: _201  and  _202
REMARK   80  A    between atoms: _202  and  _352
REMARK   81  A    between atoms: _203  and  _205
REMARK   82  A    between atoms: _205  and  _206
REMARK   83  A    between atoms: _205  and  _208
REMARK   84  A    between atoms: _208  and  _209
REMARK   85  A    between atoms: _209  and  _210
REMARK   86  A    between atoms: _210  and  _211
REMARK   87  A    between atoms: _220  and  _222
REMARK   88  A    between atoms: _222  and  _223
REMARK   89  A    between atoms: _222  and  _225
REMARK   90  A    between atoms: _225  and  _226
REMARK   91  A    between atoms: _226  and  _227
REMARK   92  A    between atoms: _230  and  _232
REMARK   93  A    between atoms: _232  and  _233
REMARK   94  A    between atoms: _232  and  _235
REMARK   95  A    between atoms: _235  and  _236
REMARK   96  A    between atoms: _236  and  _237
REMARK   97  A    between atoms: _237  and  _238
REMARK   98  A    between atoms: _247  and  _249
REMARK   99  A    between atoms: _249  and  _250
REMARK  100  A    between atoms: _249  and  _252
REMARK  101  A    between atoms: _252  and  _253
REMARK  102  A    between atoms: _255  and  _257
REMARK  103  A    between atoms: _257  and  _258
REMARK  104  A    between atoms: _257  and  _260
REMARK  105  A    between atoms: _260  and  _261
REMARK  106  A    between atoms: _266  and  _267
REMARK  107  A    between atoms: _269  and  _271
REMARK  108  A    between atoms: _271  and  _272
REMARK  109  A    between atoms: _271  and  _274
REMARK  110  A    between atoms: _274  and  _275
REMARK  111  A    between atoms: _280  and  _282
REMARK  112  A    between atoms: _282  and  _283
REMARK  113  A    between atoms: _282  and  _285
REMARK  114  A    between atoms: _288  and  _290
REMARK  115  A    between atoms: _290  and  _291
REMARK  116  A    between atoms: _290  and  _293
REMARK  117  A    between atoms: _293  and  _294
REMARK  118  A    between atoms: _294  and  _295
REMARK  119  A    between atoms: _295  and  _296
REMARK  120  A    between atoms: _305  and  _307
REMARK  121  A    between atoms: _307  and  _308
REMARK  122  A    between atoms: _307  and  _310
REMARK  123  A    between atoms: _310  and  _311
REMARK  124  A    between atoms: _316  and  _318
REMARK  125  A    between atoms: _318  and  _319
REMARK  126  A    between atoms: _318  and  _321
REMARK  127  A    between atoms: _321  and  _322
REMARK  128  A    between atoms: _325  and  _327
REMARK  129  A    between atoms: _327  and  _328
REMARK  130  A    between atoms: _330  and  _332
REMARK  131  A    between atoms: _332  and  _333
REMARK  132  A    between atoms: _332  and  _335
REMARK  133  A    between atoms: _335  and  _336
REMARK  134  A    between atoms: _346  and  _348
REMARK  135  A    between atoms: _348  and  _349
REMARK  136  A    between atoms: _348  and  _351
REMARK  137  A    between atoms: _351  and  _352
REMARK  138  A    between atoms: _353  and  _355
REMARK  139  A    between atoms: _355  and  _356
REMARK  140  A    between atoms: _355  and  _358
REMARK  141  A    between atoms: _358  and  _359
REMARK  142  A    between atoms: _362  and  _364
REMARK  143  A    between atoms: _364  and  _365
REMARK  144  A    between atoms: _367  and  _369
REMARK  145  A    between atoms: _369  and  _370
REMARK  146  A    between atoms: _369  and  _372
REMARK  147  A    between atoms: _372  and  _373
REMARK  148  A    between atoms: _378  and  _379
REMARK  149  A    between atoms: _381  and  _383
REMARK  150  A    between atoms: _383  and  _384
REMARK  151  A    between atoms: _383  and  _386
REMARK  152  A    between atoms: _386  and  _387
REMARK  153  A    between atoms: _387  and  _388
REMARK  154  A    between atoms: _388  and  _389
REMARK  155  A    between atoms: _398  and  _400
REMARK  156  A    between atoms: _400  and  _401
REMARK  157  A    between atoms: _400  and  _403
REMARK  158  A    between atoms: _403  and  _404
REMARK  159  A    between atoms: _407  and  _409
REMARK  160  A    between atoms: _409  and  _410
REMARK  161  A    between atoms: _409  and  _412
REMARK  162  A    between atoms: _412  and  _413
REMARK  163  A    between atoms: _413  and  _414
REMARK  164  A    between atoms: _414  and  _415
REMARK  165  A    between atoms: _415  and  _416
REMARK  166  A    between atoms: _420  and  _422
REMARK  167  A    between atoms: _422  and  _423
REMARK  168  A    between atoms: _425  and  _427
REMARK  169  A    between atoms: _427  and  _428
REMARK  170  A    between atoms: _431  and  _433
REMARK  171  A    between atoms: _433  and  _434
REMARK  172  A    between atoms: _433  and  _436
REMARK  173  A    between atoms: _436  and  _437
REMARK  174  A    between atoms: _442  and  _444
REMARK  175  A    between atoms: _444  and  _445
REMARK  176  A    between atoms: _448  and  _450
REMARK  177  A    between atoms: _450  and  _451
REMARK  178  A    between atoms: _454  and  _455
REMARK  179  A    between atoms: _460  and  _462
REMARK  180  A    between atoms: _462  and  _463
REMARK  181  A    between atoms: _462  and  _465
REMARK  182  A    between atoms: _465  and  _466
REMARK  183  A    between atoms: _469  and  _471
REMARK  184  A    between atoms: _471  and  _472
REMARK  185  A    between atoms: _471  and  _474
REMARK  186  A    between atoms: _474  and  _475
REMARK  187  A    between atoms: _485  and  _487
REMARK  188  A    between atoms: _487  and  _488
REMARK  189  A    between atoms: _487  and  _490
REMARK  190  A    between atoms: _490  and  _491
REMARK  191  A    between atoms: _497  and  _498
REMARK  192  A    between atoms: _503  and  _505
REMARK  193  A    between atoms: _505  and  _506
REMARK  194  A    between atoms: _505  and  _508
REMARK  195  A    between atoms: _508  and  _509
REMARK  196  A    between atoms: _514  and  _516
REMARK  197  A    between atoms: _516  and  _517
REMARK  198  A    between atoms: _516  and  _519
REMARK  199  A    between atoms: _522  and  _524
REMARK  200  A    between atoms: _524  and  _525
REMARK  201  A    between atoms: _524  and  _527
REMARK  202  A    between atoms: _527  and  _528
REMARK  203  A    between atoms: _528  and  _529
REMARK  204  A    between atoms: _535  and  _536
REMARK  205  A    between atoms: _541  and  _543
REMARK  206  A    between atoms: _543  and  _544
REMARK  207  A    between atoms: _543  and  _546
REMARK  208  A    between atoms: _546  and  _547
REMARK  209  A    between atoms: _550  and  _552
REMARK  210  A    between atoms: _552  and  _553
REMARK  211  A    between atoms: _552  and  _555
REMARK  212  A    between atoms: _555  and  _556
REMARK  213  A    between atoms: _558  and  _560
REMARK  214  A    between atoms: _560  and  _561
REMARK  215  A    between atoms: _560  and  _563
REMARK  216  A    between atoms: _563  and  _564
REMARK  217  A    between atoms: _569  and  _570
REMARK  218  A    between atoms: _572  and  _574
REMARK  219  A    between atoms: _574  and  _575
REMARK  220  A    between atoms: _574  and  _577
REMARK  221  A    between atoms: _577  and  _578
REMARK  222  A    between atoms: _588  and  _590
REMARK  223  A    between atoms: _590  and  _591
REMARK  224  A    between atoms: _593  and  _595
REMARK  225  A    between atoms: _595  and  _596
REMARK  226  A    between atoms: _599  and  _601
REMARK  227  A    between atoms: _601  and  _602
REMARK  228  A    between atoms: _601  and  _604
REMARK  229  A    between atoms: _604  and  _605
REMARK  230  A    between atoms: _610  and  _612
REMARK  231  A    between atoms: _612  and  _613
REMARK  232  A    between atoms: _616  and  _618
REMARK  233  A    between atoms: _618  and  _619
REMARK  234  A    between atoms: _622  and  _623
REMARK  235  A    between atoms: _628  and  _630
REMARK  236  A    between atoms: _630  and  _631
REMARK  237  A    between atoms: _630  and  _633
REMARK  238  A    between atoms: _633  and  _634
REMARK  239  A    between atoms: _637  and  _639
REMARK  240  A    between atoms: _639  and  _640
REMARK  241  A    between atoms: _639  and  _642
REMARK  242  A    between atoms: _642  and  _643
REMARK  243  A    between atoms: _653  and  _655
REMARK  244  A    between atoms: _655  and  _656
REMARK  245  A    between atoms: _655  and  _658
REMARK  246  A    between atoms: _658  and  _659
REMARK  247  A    between atoms: _664  and  _666
REMARK  248  A    between atoms: _666  and  _667
REMARK  249  A    between atoms: _666  and  _669
REMARK  250  A    between atoms: _669  and  _670
REMARK  251  A    between atoms: _673  and  _675
REMARK  252  A    between atoms: _675  and  _676
REMARK  253  A    between atoms: _675  and  _678
REMARK  254  A    between atoms: _678  and  _679
REMARK  255  A    between atoms: _679  and  _680
REMARK  256  A    between atoms: _683  and  _685
REMARK  257  A    between atoms: _685  and  _686
REMARK  258  A    between atoms: _685  and  _688
REMARK  259  A    between atoms: _688  and  _689
REMARK  260  A    between atoms: _689  and  _690
REMARK  261  A    between atoms: _690  and  _691
REMARK  262  A    between atoms: _691  and  _692
REMARK  263  A    between atoms: _696  and  _698
REMARK  264  A    between atoms: _698  and  _699
REMARK  265  A    between atoms: _698  and  _701
REMARK  266  A    between atoms: _701  and  _702
REMARK  267  A    between atoms: _707  and  _709
REMARK  268  A    between atoms: _709  and  _710
REMARK  269  A    between atoms: _709  and  _712
REMARK  270  A    between atoms: _712  and  _713
REMARK  271  A    between atoms: _713  and  _714
REMARK  272  A    between atoms: _714  and  _715
REMARK  273  A    between atoms: _724  and  _726
REMARK  274  A    between atoms: _726  and  _727
REMARK  275  A    between atoms: _726  and  _729
REMARK  276  A    between atoms: _729  and  _730
REMARK  277  A    between atoms: _733  and  _735
REMARK  278  A    between atoms: _735  and  _736
REMARK  279  A    between atoms: _735  and  _738
REMARK  280  A    between atoms: _741  and  _743
REMARK  281  A    between atoms: _743  and  _744
REMARK  282  A    between atoms: _743  and  _746
REMARK  283  A    between atoms: _746  and  _747
REMARK  284  A    between atoms: _747  and  _748
REMARK  285  A    between atoms: _754  and  _755
REMARK  286  A    between atoms: _760  and  _762
REMARK  287  A    between atoms: _762  and  _763
REMARK  288  A    between atoms: _762  and  _765
REMARK  289  A    between atoms: _765  and  _766
REMARK  290  A    between atoms: _769  and  _771
REMARK  291  A    between atoms: _771  and  _772
REMARK  292  A    between atoms: _771  and  _774
REMARK  293  A    between atoms: _774  and  _775
REMARK  294  A    between atoms: _775  and  _776
REMARK  295  A    between atoms: _776  and  _777
REMARK  296  A    between atoms: _786  and  _788
REMARK  297  A    between atoms: _788  and  _789
REMARK                            x       y       z     vdW  Elec       q    Type
REMARK                         _______ _______ _______ _____ _____    ______ ____
ROOT
ATOM      1  O   HOH     1      21.411  12.461 -22.536  0.00  0.00    +0.000 OA
ENDROOT
TORSDOF 0
REMARK  Name = ../refined-set-2016/3o4k/3o4k_pocket.pdb
REMARK  297 active torsions:
REMARK  status: ('A' for Active; 'I' for Inactive)
REMARK    1  A    between atoms: _1  and  _3
REMARK    2  A    between atoms: _3  and  _4
REMARK    3  A    between atoms: _3  and  _6
REMARK    4  A    between atoms: _6  and  _7
REMARK    5  A    between atoms: _7  and  _8
REMARK    6  A    between atoms: _8  and  _9
REMARK    7  A    between atoms: _18  and  _20
REMARK    8  A    between atoms: _20  and  _21
REMARK    9  A    between atoms: _20  and  _23
REMARK   10  A    between atoms: _23  and  _24
REMARK   11  A    between atoms: _29  and  _30
REMARK   12  A    between atoms: _32  and  _34
REMARK   13  A    between atoms: _34  and  _35
REMARK   14  A    between atoms: _34  and  _37
REMARK   15  A    between atoms: _37  and  _38
REMARK   16  A    between atoms: _48  and  _50
REMARK   17  A    between atoms: _50  and  _51
REMARK   18  A    between atoms: _50  and  _53
REMARK   19  A    between atoms: _53  and  _54
REMARK   20  A    between atoms: _54  and  _55
REMARK   21  A    between atoms: _55  and  _56
REMARK   22  A    between atoms: _65  and  _67
REMARK   23  A    between atoms: _67  and  _68
REMARK   24  A    between atoms: _67  and  _70
REMARK   25  A    between atoms: _70  and  _71
REMARK   26  A    between atoms: _73  and  _75
REMARK   27  A    between atoms: _75  and  _76
REMARK   28  A    between atoms: _75  and  _78
REMARK   29  A    between atoms: _78  and  _79
REMARK   30  A    between atoms: _84  and  _86
REMARK   31  A    between atoms: _86  and  _87
REMARK   32  A    between atoms: _86  and  _89
REMARK   33  A    between atoms: _89  and  _90
REMARK   34  A    between atoms: _95  and  _96
REMARK   35  A    between atoms: _98  and  _100
REMARK   36  A    between atoms: _100  and  _101
REMARK   37  A    between atoms: _100  and  _103
REMARK   38  A    between atoms: _103  and  _104
REMARK   39  A    between atoms: _104  and  _105
REMARK   40  A    between atoms: _108  and  _110
REMARK   41  A    between atoms: _110  and  _111
REMARK   42  A    between atoms: _110  and  _113
REMARK   43  A    between atoms: _116  and  _118
REMARK   44  A    between atoms: _118  and  _119
REMARK   45  A    between atoms: _118  and  _121
REMARK   46  A    between atoms: _121  and  _122
REMARK   47  A    between atoms: _122  and  _123
REMARK   48  A    between atoms: _123  and  _124
REMARK   49  A    between atoms: _124  and  _125
REMARK   50  A    between atoms: _129  and  _131
REMARK   51  A    between atoms: _131  and  _132
REMARK   52  A    between atoms: _131  and  _134
REMARK   53  A    between atoms: _134  and  _135
REMARK   54  A    between atoms: _140  and  _142
REMARK   55  A    between atoms: _142  and  _143
REMARK   56  A    between atoms: _142  and  _145
REMARK   57  A    between atoms: _145  and  _146
REMARK   58  A    between atoms: _151  and  _152
REMARK   59  A    between atoms: _154  and  _156
REMARK   60  A    between atoms: _156  and  _157
REMARK   61  A    between atoms: _156  and  _159
REMARK   62  A    between atoms: _159  and  _160
REMARK   63  A    between atoms: _160  and  _161
REMARK   64  A    between atoms: _161  and  _162
REMARK   65  A    between atoms: _171  and  _173
REMARK   66  A    between atoms: _173  and  _174
REMARK   67  A    between atoms: _178  and  _180
REMARK   68  A    between atoms: _180  and  _181
REMARK   69  A    between atoms: _180  and  _183
REMARK   70  A    between atoms: _183  and  _184
REMARK   71  A    between atoms: _186  and  _188
REMARK   72  A    between atoms: _188  and  _189
REMARK   73  A    between atoms: _188  and  _191
REMARK   74  A    between atoms: _191  and  _192
REMARK   75  A    between atoms: _192  and  _193
REMARK   76  A    between atoms: _196  and  _198
REMARK   77  A    between atoms: _198  and  _199
REMARK   78  A    between atoms: _198  and  _201
REMARK   79  A    between atoms: _201  and  _202
REMARK   80  A    between atoms: _202  and  _352
REMARK   81  A    between atoms: _203  and  _205
REMARK   82  A    between atoms: _205  and  _206
REMARK   83  A    between atoms: _205  and  _208
REMARK   84  A    between atoms: _208  and  _209
REMARK   85  A    between atoms: _209  and  _210
REMARK   86  A    between atoms: _210  and  _211
REMARK   87  A    between atoms: _220  and  _222
REMARK   88  A    between atoms: _222  and  _223
REMARK   89  A    between atoms: _222  and  _225
REMARK   90  A    between atoms: _225  and  _226
REMARK   91  A    between atoms: _226  and  _227
REMARK   92  A    between atoms: _230  and  _232
REMARK   93  A    between atoms: _232  and  _233
REMARK   94  A    between atoms: _232  and  _235
REMARK   95  A    between atoms: _235  and  _236
REMARK   96  A    between atoms: _236  and  _237
REMARK   97  A    between atoms: _237  and  _238
REMARK   98  A    between atoms: _247  and  _249
REMARK   99  A    between atoms: _249  and  _250
REMARK  100  A    between atoms: _249  and  _252
REMARK  101  A    between atoms: _252  and  _253
REMARK  102  A    between atoms: _255  and  _257
REMARK  103  A    between atoms: _257  and  _258
REMARK  104  A    between atoms: _257  and  _260
REMARK  105  A    between atoms: _260  and  _261
REMARK  106  A    between atoms: _266  and  _267
REMARK  107  A    between atoms: _269  and  _271
REMARK  108  A    between atoms: _271  and  _272
REMARK  109  A    between atoms: _271  and  _274
REMARK  110  A    between atoms: _274  and  _275
REMARK  111  A    between atoms: _280  and  _282
REMARK  112  A    between atoms: _282  and  _283
REMARK  113  A    between atoms: _282  and  _285
REMARK  114  A    between atoms: _288  and  _290
REMARK  115  A    between atoms: _290  and  _291
REMARK  116  A    between atoms: _290  and  _293
REMARK  117  A    between atoms: _293  and  _294
REMARK  118  A    between atoms: _294  and  _295
REMARK  119  A    between atoms: _295  and  _296
REMARK  120  A    between atoms: _305  and  _307
REMARK  121  A    between atoms: _307  and  _308
REMARK  122  A    between atoms: _307  and  _310
REMARK  123  A    between atoms: _310  and  _311
REMARK  124  A    between atoms: _316  and  _318
REMARK  125  A    between atoms: _318  and  _319
REMARK  126  A    between atoms: _318  and  _321
REMARK  127  A    between atoms: _321  and  _322
REMARK  128  A    between atoms: _325  and  _327
REMARK  129  A    between atoms: _327  and  _328
REMARK  130  A    between atoms: _330  and  _332
REMARK  131  A    between atoms: _332  and  _333
REMARK  132  A    between atoms: _332  and  _335
REMARK  133  A    between atoms: _335  and  _336
REMARK  134  A    between atoms: _346  and  _348
REMARK  135  A    between atoms: _348  and  _349
REMARK  136  A    between atoms: _348  and  _351
REMARK  137  A    between atoms: _351  and  _352
REMARK  138  A    between atoms: _353  and  _355
REMARK  139  A    between atoms: _355  and  _356
REMARK  140  A    between atoms: _355  and  _358
REMARK  141  A    between atoms: _358  and  _359
REMARK  142  A    between atoms: _362  and  _364
REMARK  143  A    between atoms: _364  and  _365
REMARK  144  A    between atoms: _367  and  _369
REMARK  145  A    between atoms: _369  and  _370
REMARK  146  A    between atoms: _369  and  _372
REMARK  147  A    between atoms: _372  and  _373
REMARK  148  A    between atoms: _378  and  _379
REMARK  149  A    between atoms: _381  and  _383
REMARK  150  A    between atoms: _383  and  _384
REMARK  151  A    between atoms: _383  and  _386
REMARK  152  A    between atoms: _386  and  _387
REMARK  153  A    between atoms: _387  and  _388
REMARK  154  A    between atoms: _388  and  _389
REMARK  155  A    between atoms: _398  and  _400
REMARK  156  A    between atoms: _400  and  _401
REMARK  157  A    between atoms: _400  and  _403
REMARK  158  A    between atoms: _403  and  _404
REMARK  159  A    between atoms: _407  and  _409
REMARK  160  A    between atoms: _409  and  _410
REMARK  161  A    between atoms: _409  and  _412
REMARK  162  A    between atoms: _412  and  _413
REMARK  163  A    between atoms: _413  and  _414
REMARK  164  A    between atoms: _414  and  _415
REMARK  165  A    between atoms: _415  and  _416
REMARK  166  A    between atoms: _420  and  _422
REMARK  167  A    between atoms: _422  and  _423
REMARK  168  A    between atoms: _425  and  _427
REMARK  169  A    between atoms: _427  and  _428
REMARK  170  A    between atoms: _431  and  _433
REMARK  171  A    between atoms: _433  and  _434
REMARK  172  A    between atoms: _433  and  _436
REMARK  173  A    between atoms: _436  and  _437
REMARK  174  A    between atoms: _442  and  _444
REMARK  175  A    between atoms: _444  and  _445
REMARK  176  A    between atoms: _448  and  _450
REMARK  177  A    between atoms: _450  and  _451
REMARK  178  A    between atoms: _454  and  _455
REMARK  179  A    between atoms: _460  and  _462
REMARK  180  A    between atoms: _462  and  _463
REMARK  181  A    between atoms: _462  and  _465
REMARK  182  A    between atoms: _465  and  _466
REMARK  183  A    between atoms: _469  and  _471
REMARK  184  A    between atoms: _471  and  _472
REMARK  185  A    between atoms: _471  and  _474
REMARK  186  A    between atoms: _474  and  _475
REMARK  187  A    between atoms: _485  and  _487
REMARK  188  A    between atoms: _487  and  _488
REMARK  189  A    between atoms: _487  and  _490
REMARK  190  A    between atoms: _490  and  _491
REMARK  191  A    between atoms: _497  and  _498
REMARK  192  A    between atoms: _503  and  _505
REMARK  193  A    between atoms: _505  and  _506
REMARK  194  A    between atoms: _505  and  _508
REMARK  195  A    between atoms: _508  and  _509
REMARK  196  A    between atoms: _514  and  _516
REMARK  197  A    between atoms: _516  and  _517
REMARK  198  A    between atoms: _516  and  _519
REMARK  199  A    between atoms: _522  and  _524
REMARK  200  A    between atoms: _524  and  _525
REMARK  201  A    between atoms: _524  and  _527
REMARK  202  A    between atoms: _527  and  _528
REMARK  203  A    between atoms: _528  and  _529
REMARK  204  A    between atoms: _535  and  _536
REMARK  205  A    between atoms: _541  and  _543
REMARK  206  A    between atoms: _543  and  _544
REMARK  207  A    between atoms: _543  and  _546
REMARK  208  A    between atoms: _546  and  _547
REMARK  209  A    between atoms: _550  and  _552
REMARK  210  A    between atoms: _552  and  _553
REMARK  211  A    between atoms: _552  and  _555
REMARK  212  A    between atoms: _555  and  _556
REMARK  213  A    between atoms: _558  and  _560
REMARK  214  A    between atoms: _560  and  _561
REMARK  215  A    between atoms: _560  and  _563
REMARK  216  A    between atoms: _563  and  _564
REMARK  217  A    between atoms: _569  and  _570
REMARK  218  A    between atoms: _572  and  _574
REMARK  219  A    between atoms: _574  and  _575
REMARK  220  A    between atoms: _574  and  _577
REMARK  221  A    between atoms: _577  and  _578
REMARK  222  A    between atoms: _588  and  _590
REMARK  223  A    between atoms: _590  and  _591
REMARK  224  A    between atoms: _593  and  _595
REMARK  225  A    between atoms: _595  and  _596
REMARK  226  A    between atoms: _599  and  _601
REMARK  227  A    between atoms: _601  and  _602
REMARK  228  A    between atoms: _601  and  _604
REMARK  229  A    between atoms: _604  and  _605
REMARK  230  A    between atoms: _610  and  _612
REMARK  231  A    between atoms: _612  and  _613
REMARK  232  A    between atoms: _616  and  _618
REMARK  233  A    between atoms: _618  and  _619
REMARK  234  A    between atoms: _622  and  _623
REMARK  235  A    between atoms: _628  and  _630
REMARK  236  A    between atoms: _630  and  _631
REMARK  237  A    between atoms: _630  and  _633
REMARK  238  A    between atoms: _633  and  _634
REMARK  239  A    between atoms: _637  and  _639
REMARK  240  A    between atoms: _639  and  _640
REMARK  241  A    between atoms: _639  and  _642
REMARK  242  A    between atoms: _642  and  _643
REMARK  243  A    between atoms: _653  and  _655
REMARK  244  A    between atoms: _655  and  _656
REMARK  245  A    between atoms: _655  and  _658
REMARK  246  A    between atoms: _658  and  _659
REMARK  247  A    between atoms: _664  and  _666
REMARK  248  A    between atoms: _666  and  _667
REMARK  249  A    between atoms: _666  and  _669
REMARK  250  A    between atoms: _669  and  _670
REMARK  251  A    between atoms: _673  and  _675
REMARK  252  A    between atoms: _675  and  _676
REMARK  253  A    between atoms: _675  and  _678
REMARK  254  A    between atoms: _678  and  _679
REMARK  255  A    between atoms: _679  and  _680
REMARK  256  A    between atoms: _683  and  _685
REMARK  257  A    between atoms: _685  and  _686
REMARK  258  A    between atoms: _685  and  _688
REMARK  259  A    between atoms: _688  and  _689
REMARK  260  A    between atoms: _689  and  _690
REMARK  261  A    between atoms: _690  and  _691
REMARK  262  A    between atoms: _691  and  _692
REMARK  263  A    between atoms: _696  and  _698
REMARK  264  A    between atoms: _698  and  _699
REMARK  265  A    between atoms: _698  and  _701
REMARK  266  A    between atoms: _701  and  _702
REMARK  267  A    between atoms: _707  and  _709
REMARK  268  A    between atoms: _709  and  _710
REMARK  269  A    between atoms: _709  and  _712
REMARK  270  A    between atoms: _712  and  _713
REMARK  271  A    between atoms: _713  and  _714
REMARK  272  A    between atoms: _714  and  _715
REMARK  273  A    between atoms: _724  and  _726
REMARK  274  A    between atoms: _726  and  _727
REMARK  275  A    between atoms: _726  and  _729
REMARK  276  A    between atoms: _729  and  _730
REMARK  277  A    between atoms: _733  and  _735
REMARK  278  A    between atoms: _735  and  _736
REMARK  279  A    between atoms: _735  and  _738
REMARK  280  A    between atoms: _741  and  _743
REMARK  281  A    between atoms: _743  and  _744
REMARK  282  A    between atoms: _743  and  _746
REMARK  283  A    between atoms: _746  and  _747
REMARK  284  A    between atoms: _747  and  _748
REMARK  285  A    between atoms: _754  and  _755
REMARK  286  A    between atoms: _760  and  _762
REMARK  287  A    between atoms: _762  and  _763
REMARK  288  A    between atoms: _762  and  _765
REMARK  289  A    between atoms: _765  and  _766
REMARK  290  A    between atoms: _769  and  _771
REMARK  291  A    between atoms: _771  and  _772
REMARK  292  A    between atoms: _771  and  _774
REMARK  293  A    between atoms: _774  and  _775
REMARK  294  A    between atoms: _775  and  _776
REMARK  295  A    between atoms: _776  and  _777
REMARK  296  A    between atoms: _786  and  _788
REMARK  297  A    between atoms: _788  and  _789
REMARK                            x       y       z     vdW  Elec       q    Type
REMARK                         _______ _______ _______ _____ _____    ______ ____
ROOT
ATOM      1  O   HOH     1      26.918  11.196 -28.024  0.00  0.00    +0.000 OA
ENDROOT
TORSDOF 0
REMARK  Name = ../refined-set-2016/3o4k/3o4k_pocket.pdb
REMARK  297 active torsions:
REMARK  status: ('A' for Active; 'I' for Inactive)
REMARK    1  A    between atoms: _1  and  _3
REMARK    2  A    between atoms: _3  and  _4
REMARK    3  A    between atoms: _3  and  _6
REMARK    4  A    between atoms: _6  and  _7
REMARK    5  A    between atoms: _7  and  _8
REMARK    6  A    between atoms: _8  and  _9
REMARK    7  A    between atoms: _18  and  _20
REMARK    8  A    between atoms: _20  and  _21
REMARK    9  A    between atoms: _20  and  _23
REMARK   10  A    between atoms: _23  and  _24
REMARK   11  A    between atoms: _29  and  _30
REMARK   12  A    between atoms: _32  and  _34
REMARK   13  A    between atoms: _34  and  _35
REMARK   14  A    between atoms: _34  and  _37
REMARK   15  A    between atoms: _37  and  _38
REMARK   16  A    between atoms: _48  and  _50
REMARK   17  A    between atoms: _50  and  _51
REMARK   18  A    between atoms: _50  and  _53
REMARK   19  A    between atoms: _53  and  _54
REMARK   20  A    between atoms: _54  and  _55
REMARK   21  A    between atoms: _55  and  _56
REMARK   22  A    between atoms: _65  and  _67
REMARK   23  A    between atoms: _67  and  _68
REMARK   24  A    between atoms: _67  and  _70
REMARK   25  A    between atoms: _70  and  _71
REMARK   26  A    between atoms: _73  and  _75
REMARK   27  A    between atoms: _75  and  _76
REMARK   28  A    between atoms: _75  and  _78
REMARK   29  A    between atoms: _78  and  _79
REMARK   30  A    between atoms: _84  and  _86
REMARK   31  A    between atoms: _86  and  _87
REMARK   32  A    between atoms: _86  and  _89
REMARK   33  A    between atoms: _89  and  _90
REMARK   34  A    between atoms: _95  and  _96
REMARK   35  A    between atoms: _98  and  _100
REMARK   36  A    between atoms: _100  and  _101
REMARK   37  A    between atoms: _100  and  _103
REMARK   38  A    between atoms: _103  and  _104
REMARK   39  A    between atoms: _104  and  _105
REMARK   40  A    between atoms: _108  and  _110
REMARK   41  A    between atoms: _110  and  _111
REMARK   42  A    between atoms: _110  and  _113
REMARK   43  A    between atoms: _116  and  _118
REMARK   44  A    between atoms: _118  and  _119
REMARK   45  A    between atoms: _118  and  _121
REMARK   46  A    between atoms: _121  and  _122
REMARK   47  A    between atoms: _122  and  _123
REMARK   48  A    between atoms: _123  and  _124
REMARK   49  A    between atoms: _124  and  _125
REMARK   50  A    between atoms: _129  and  _131
REMARK   51  A    between atoms: _131  and  _132
REMARK   52  A    between atoms: _131  and  _134
REMARK   53  A    between atoms: _134  and  _135
REMARK   54  A    between atoms: _140  and  _142
REMARK   55  A    between atoms: _142  and  _143
REMARK   56  A    between atoms: _142  and  _145
REMARK   57  A    between atoms: _145  and  _146
REMARK   58  A    between atoms: _151  and  _152
REMARK   59  A    between atoms: _154  and  _156
REMARK   60  A    between atoms: _156  and  _157
REMARK   61  A    between atoms: _156  and  _159
REMARK   62  A    between atoms: _159  and  _160
REMARK   63  A    between atoms: _160  and  _161
REMARK   64  A    between atoms: _161  and  _162
REMARK   65  A    between atoms: _171  and  _173
REMARK   66  A    between atoms: _173  and  _174
REMARK   67  A    between atoms: _178  and  _180
REMARK   68  A    between atoms: _180  and  _181
REMARK   69  A    between atoms: _180  and  _183
REMARK   70  A    between atoms: _183  and  _184
REMARK   71  A    between atoms: _186  and  _188
REMARK   72  A    between atoms: _188  and  _189
REMARK   73  A    between atoms: _188  and  _191
REMARK   74  A    between atoms: _191  and  _192
REMARK   75  A    between atoms: _192  and  _193
REMARK   76  A    between atoms: _196  and  _198
REMARK   77  A    between atoms: _198  and  _199
REMARK   78  A    between atoms: _198  and  _201
REMARK   79  A    between atoms: _201  and  _202
REMARK   80  A    between atoms: _202  and  _352
REMARK   81  A    between atoms: _203  and  _205
REMARK   82  A    between atoms: _205  and  _206
REMARK   83  A    between atoms: _205  and  _208
REMARK   84  A    between atoms: _208  and  _209
REMARK   85  A    between atoms: _209  and  _210
REMARK   86  A    between atoms: _210  and  _211
REMARK   87  A    between atoms: _220  and  _222
REMARK   88  A    between atoms: _222  and  _223
REMARK   89  A    between atoms: _222  and  _225
REMARK   90  A    between atoms: _225  and  _226
REMARK   91  A    between atoms: _226  and  _227
REMARK   92  A    between atoms: _230  and  _232
REMARK   93  A    between atoms: _232  and  _233
REMARK   94  A    between atoms: _232  and  _235
REMARK   95  A    between atoms: _235  and  _236
REMARK   96  A    between atoms: _236  and  _237
REMARK   97  A    between atoms: _237  and  _238
REMARK   98  A    between atoms: _247  and  _249
REMARK   99  A    between atoms: _249  and  _250
REMARK  100  A    between atoms: _249  and  _252
REMARK  101  A    between atoms: _252  and  _253
REMARK  102  A    between atoms: _255  and  _257
REMARK  103  A    between atoms: _257  and  _258
REMARK  104  A    between atoms: _257  and  _260
REMARK  105  A    between atoms: _260  and  _261
REMARK  106  A    between atoms: _266  and  _267
REMARK  107  A    between atoms: _269  and  _271
REMARK  108  A    between atoms: _271  and  _272
REMARK  109  A    between atoms: _271  and  _274
REMARK  110  A    between atoms: _274  and  _275
REMARK  111  A    between atoms: _280  and  _282
REMARK  112  A    between atoms: _282  and  _283
REMARK  113  A    between atoms: _282  and  _285
REMARK  114  A    between atoms: _288  and  _290
REMARK  115  A    between atoms: _290  and  _291
REMARK  116  A    between atoms: _290  and  _293
REMARK  117  A    between atoms: _293  and  _294
REMARK  118  A    between atoms: _294  and  _295
REMARK  119  A    between atoms: _295  and  _296
REMARK  120  A    between atoms: _305  and  _307
REMARK  121  A    between atoms: _307  and  _308
REMARK  122  A    between atoms: _307  and  _310
REMARK  123  A    between atoms: _310  and  _311
REMARK  124  A    between atoms: _316  and  _318
REMARK  125  A    between atoms: _318  and  _319
REMARK  126  A    between atoms: _318  and  _321
REMARK  127  A    between atoms: _321  and  _322
REMARK  128  A    between atoms: _325  and  _327
REMARK  129  A    between atoms: _327  and  _328
REMARK  130  A    between atoms: _330  and  _332
REMARK  131  A    between atoms: _332  and  _333
REMARK  132  A    between atoms: _332  and  _335
REMARK  133  A    between atoms: _335  and  _336
REMARK  134  A    between atoms: _346  and  _348
REMARK  135  A    between atoms: _348  and  _349
REMARK  136  A    between atoms: _348  and  _351
REMARK  137  A    between atoms: _351  and  _352
REMARK  138  A    between atoms: _353  and  _355
REMARK  139  A    between atoms: _355  and  _356
REMARK  140  A    between atoms: _355  and  _358
REMARK  141  A    between atoms: _358  and  _359
REMARK  142  A    between atoms: _362  and  _364
REMARK  143  A    between atoms: _364  and  _365
REMARK  144  A    between atoms: _367  and  _369
REMARK  145  A    between atoms: _369  and  _370
REMARK  146  A    between atoms: _369  and  _372
REMARK  147  A    between atoms: _372  and  _373
REMARK  148  A    between atoms: _378  and  _379
REMARK  149  A    between atoms: _381  and  _383
REMARK  150  A    between atoms: _383  and  _384
REMARK  151  A    between atoms: _383  and  _386
REMARK  152  A    between atoms: _386  and  _387
REMARK  153  A    between atoms: _387  and  _388
REMARK  154  A    between atoms: _388  and  _389
REMARK  155  A    between atoms: _398  and  _400
REMARK  156  A    between atoms: _400  and  _401
REMARK  157  A    between atoms: _400  and  _403
REMARK  158  A    between atoms: _403  and  _404
REMARK  159  A    between atoms: _407  and  _409
REMARK  160  A    between atoms: _409  and  _410
REMARK  161  A    between atoms: _409  and  _412
REMARK  162  A    between atoms: _412  and  _413
REMARK  163  A    between atoms: _413  and  _414
REMARK  164  A    between atoms: _414  and  _415
REMARK  165  A    between atoms: _415  and  _416
REMARK  166  A    between atoms: _420  and  _422
REMARK  167  A    between atoms: _422  and  _423
REMARK  168  A    between atoms: _425  and  _427
REMARK  169  A    between atoms: _427  and  _428
REMARK  170  A    between atoms: _431  and  _433
REMARK  171  A    between atoms: _433  and  _434
REMARK  172  A    between atoms: _433  and  _436
REMARK  173  A    between atoms: _436  and  _437
REMARK  174  A    between atoms: _442  and  _444
REMARK  175  A    between atoms: _444  and  _445
REMARK  176  A    between atoms: _448  and  _450
REMARK  177  A    between atoms: _450  and  _451
REMARK  178  A    between atoms: _454  and  _455
REMARK  179  A    between atoms: _460  and  _462
REMARK  180  A    between atoms: _462  and  _463
REMARK  181  A    between atoms: _462  and  _465
REMARK  182  A    between atoms: _465  and  _466
REMARK  183  A    between atoms: _469  and  _471
REMARK  184  A    between atoms: _471  and  _472
REMARK  185  A    between atoms: _471  and  _474
REMARK  186  A    between atoms: _474  and  _475
REMARK  187  A    between atoms: _485  and  _487
REMARK  188  A    between atoms: _487  and  _488
REMARK  189  A    between atoms: _487  and  _490
REMARK  190  A    between atoms: _490  and  _491
REMARK  191  A    between atoms: _497  and  _498
REMARK  192  A    between atoms: _503  and  _505
REMARK  193  A    between atoms: _505  and  _506
REMARK  194  A    between atoms: _505  and  _508
REMARK  195  A    between atoms: _508  and  _509
REMARK  196  A    between atoms: _514  and  _516
REMARK  197  A    between atoms: _516  and  _517
REMARK  198  A    between atoms: _516  and  _519
REMARK  199  A    between atoms: _522  and  _524
REMARK  200  A    between atoms: _524  and  _525
REMARK  201  A    between atoms: _524  and  _527
REMARK  202  A    between atoms: _527  and  _528
REMARK  203  A    between atoms: _528  and  _529
REMARK  204  A    between atoms: _535  and  _536
REMARK  205  A    between atoms: _541  and  _543
REMARK  206  A    between atoms: _543  and  _544
REMARK  207  A    between atoms: _543  and  _546
REMARK  208  A    between atoms: _546  and  _547
REMARK  209  A    between atoms: _550  and  _552
REMARK  210  A    between atoms: _552  and  _553
REMARK  211  A    between atoms: _552  and  _555
REMARK  212  A    between atoms: _555  and  _556
REMARK  213  A    between atoms: _558  and  _560
REMARK  214  A    between atoms: _560  and  _561
REMARK  215  A    between atoms: _560  and  _563
REMARK  216  A    between atoms: _563  and  _564
REMARK  217  A    between atoms: _569  and  _570
REMARK  218  A    between atoms: _572  and  _574
REMARK  219  A    between atoms: _574  and  _575
REMARK  220  A    between atoms: _574  and  _577
REMARK  221  A    between atoms: _577  and  _578
REMARK  222  A    between atoms: _588  and  _590
REMARK  223  A    between atoms: _590  and  _591
REMARK  224  A    between atoms: _593  and  _595
REMARK  225  A    between atoms: _595  and  _596
REMARK  226  A    between atoms: _599  and  _601
REMARK  227  A    between atoms: _601  and  _602
REMARK  228  A    between atoms: _601  and  _604
REMARK  229  A    between atoms: _604  and  _605
REMARK  230  A    between atoms: _610  and  _612
REMARK  231  A    between atoms: _612  and  _613
REMARK  232  A    between atoms: _616  and  _618
REMARK  233  A    between atoms: _618  and  _619
REMARK  234  A    between atoms: _622  and  _623
REMARK  235  A    between atoms: _628  and  _630
REMARK  236  A    between atoms: _630  and  _631
REMARK  237  A    between atoms: _630  and  _633
REMARK  238  A    between atoms: _633  and  _634
REMARK  239  A    between atoms: _637  and  _639
REMARK  240  A    between atoms: _639  and  _640
REMARK  241  A    between atoms: _639  and  _642
REMARK  242  A    between atoms: _642  and  _643
REMARK  243  A    between atoms: _653  and  _655
REMARK  244  A    between atoms: _655  and  _656
REMARK  245  A    between atoms: _655  and  _658
REMARK  246  A    between atoms: _658  and  _659
REMARK  247  A    between atoms: _664  and  _666
REMARK  248  A    between atoms: _666  and  _667
REMARK  249  A    between atoms: _666  and  _669
REMARK  250  A    between atoms: _669  and  _670
REMARK  251  A    between atoms: _673  and  _675
REMARK  252  A    between atoms: _675  and  _676
REMARK  253  A    between atoms: _675  and  _678
REMARK  254  A    between atoms: _678  and  _679
REMARK  255  A    between atoms: _679  and  _680
REMARK  256  A    between atoms: _683  and  _685
REMARK  257  A    between atoms: _685  and  _686
REMARK  258  A    between atoms: _685  and  _688
REMARK  259  A    between atoms: _688  and  _689
REMARK  260  A    between atoms: _689  and  _690
REMARK  261  A    between atoms: _690  and  _691
REMARK  262  A    between atoms: _691  and  _692
REMARK  263  A    between atoms: _696  and  _698
REMARK  264  A    between atoms: _698  and  _699
REMARK  265  A    between atoms: _698  and  _701
REMARK  266  A    between atoms: _701  and  _702
REMARK  267  A    between atoms: _707  and  _709
REMARK  268  A    between atoms: _709  and  _710
REMARK  269  A    between atoms: _709  and  _712
REMARK  270  A    between atoms: _712  and  _713
REMARK  271  A    between atoms: _713  and  _714
REMARK  272  A    between atoms: _714  and  _715
REMARK  273  A    between atoms: _724  and  _726
REMARK  274  A    between atoms: _726  and  _727
REMARK  275  A    between atoms: _726  and  _729
REMARK  276  A    between atoms: _729  and  _730
REMARK  277  A    between atoms: _733  and  _735
REMARK  278  A    between atoms: _735  and  _736
REMARK  279  A    between atoms: _735  and  _738
REMARK  280  A    between atoms: _741  and  _743
REMARK  281  A    between atoms: _743  and  _744
REMARK  282  A    between atoms: _743  and  _746
REMARK  283  A    between atoms: _746  and  _747
REMARK  284  A    between atoms: _747  and  _748
REMARK  285  A    between atoms: _754  and  _755
REMARK  286  A    between atoms: _760  and  _762
REMARK  287  A    between atoms: _762  and  _763
REMARK  288  A    between atoms: _762  and  _765
REMARK  289  A    between atoms: _765  and  _766
REMARK  290  A    between atoms: _769  and  _771
REMARK  291  A    between atoms: _771  and  _772
REMARK  292  A    between atoms: _771  and  _774
REMARK  293  A    between atoms: _774  and  _775
REMARK  294  A    between atoms: _775  and  _776
REMARK  295  A    between atoms: _776  and  _777
REMARK  296  A    between atoms: _786  and  _788
REMARK  297  A    between atoms: _788  and  _789
REMARK                            x       y       z     vdW  Elec       q    Type
REMARK                         _______ _______ _______ _____ _____    ______ ____
ROOT
ATOM      1  O   HOH     1       3.862  21.149 -24.127  0.00  0.00    +0.000 OA
ENDROOT
TORSDOF 0
REMARK  Name = ../refined-set-2016/3o4k/3o4k_pocket.pdb
REMARK  297 active torsions:
REMARK  status: ('A' for Active; 'I' for Inactive)
REMARK    1  A    between atoms: _1  and  _3
REMARK    2  A    between atoms: _3  and  _4
REMARK    3  A    between atoms: _3  and  _6
REMARK    4  A    between atoms: _6  and  _7
REMARK    5  A    between atoms: _7  and  _8
REMARK    6  A    between atoms: _8  and  _9
REMARK    7  A    between atoms: _18  and  _20
REMARK    8  A    between atoms: _20  and  _21
REMARK    9  A    between atoms: _20  and  _23
REMARK   10  A    between atoms: _23  and  _24
REMARK   11  A    between atoms: _29  and  _30
REMARK   12  A    between atoms: _32  and  _34
REMARK   13  A    between atoms: _34  and  _35
REMARK   14  A    between atoms: _34  and  _37
REMARK   15  A    between atoms: _37  and  _38
REMARK   16  A    between atoms: _48  and  _50
REMARK   17  A    between atoms: _50  and  _51
REMARK   18  A    between atoms: _50  and  _53
REMARK   19  A    between atoms: _53  and  _54
REMARK   20  A    between atoms: _54  and  _55
REMARK   21  A    between atoms: _55  and  _56
REMARK   22  A    between atoms: _65  and  _67
REMARK   23  A    between atoms: _67  and  _68
REMARK   24  A    between atoms: _67  and  _70
REMARK   25  A    between atoms: _70  and  _71
REMARK   26  A    between atoms: _73  and  _75
REMARK   27  A    between atoms: _75  and  _76
REMARK   28  A    between atoms: _75  and  _78
REMARK   29  A    between atoms: _78  and  _79
REMARK   30  A    between atoms: _84  and  _86
REMARK   31  A    between atoms: _86  and  _87
REMARK   32  A    between atoms: _86  and  _89
REMARK   33  A    between atoms: _89  and  _90
REMARK   34  A    between atoms: _95  and  _96
REMARK   35  A    between atoms: _98  and  _100
REMARK   36  A    between atoms: _100  and  _101
REMARK   37  A    between atoms: _100  and  _103
REMARK   38  A    between atoms: _103  and  _104
REMARK   39  A    between atoms: _104  and  _105
REMARK   40  A    between atoms: _108  and  _110
REMARK   41  A    between atoms: _110  and  _111
REMARK   42  A    between atoms: _110  and  _113
REMARK   43  A    between atoms: _116  and  _118
REMARK   44  A    between atoms: _118  and  _119
REMARK   45  A    between atoms: _118  and  _121
REMARK   46  A    between atoms: _121  and  _122
REMARK   47  A    between atoms: _122  and  _123
REMARK   48  A    between atoms: _123  and  _124
REMARK   49  A    between atoms: _124  and  _125
REMARK   50  A    between atoms: _129  and  _131
REMARK   51  A    between atoms: _131  and  _132
REMARK   52  A    between atoms: _131  and  _134
REMARK   53  A    between atoms: _134  and  _135
REMARK   54  A    between atoms: _140  and  _142
REMARK   55  A    between atoms: _142  and  _143
REMARK   56  A    between atoms: _142  and  _145
REMARK   57  A    between atoms: _145  and  _146
REMARK   58  A    between atoms: _151  and  _152
REMARK   59  A    between atoms: _154  and  _156
REMARK   60  A    between atoms: _156  and  _157
REMARK   61  A    between atoms: _156  and  _159
REMARK   62  A    between atoms: _159  and  _160
REMARK   63  A    between atoms: _160  and  _161
REMARK   64  A    between atoms: _161  and  _162
REMARK   65  A    between atoms: _171  and  _173
REMARK   66  A    between atoms: _173  and  _174
REMARK   67  A    between atoms: _178  and  _180
REMARK   68  A    between atoms: _180  and  _181
REMARK   69  A    between atoms: _180  and  _183
REMARK   70  A    between atoms: _183  and  _184
REMARK   71  A    between atoms: _186  and  _188
REMARK   72  A    between atoms: _188  and  _189
REMARK   73  A    between atoms: _188  and  _191
REMARK   74  A    between atoms: _191  and  _192
REMARK   75  A    between atoms: _192  and  _193
REMARK   76  A    between atoms: _196  and  _198
REMARK   77  A    between atoms: _198  and  _199
REMARK   78  A    between atoms: _198  and  _201
REMARK   79  A    between atoms: _201  and  _202
REMARK   80  A    between atoms: _202  and  _352
REMARK   81  A    between atoms: _203  and  _205
REMARK   82  A    between atoms: _205  and  _206
REMARK   83  A    between atoms: _205  and  _208
REMARK   84  A    between atoms: _208  and  _209
REMARK   85  A    between atoms: _209  and  _210
REMARK   86  A    between atoms: _210  and  _211
REMARK   87  A    between atoms: _220  and  _222
REMARK   88  A    between atoms: _222  and  _223
REMARK   89  A    between atoms: _222  and  _225
REMARK   90  A    between atoms: _225  and  _226
REMARK   91  A    between atoms: _226  and  _227
REMARK   92  A    between atoms: _230  and  _232
REMARK   93  A    between atoms: _232  and  _233
REMARK   94  A    between atoms: _232  and  _235
REMARK   95  A    between atoms: _235  and  _236
REMARK   96  A    between atoms: _236  and  _237
REMARK   97  A    between atoms: _237  and  _238
REMARK   98  A    between atoms: _247  and  _249
REMARK   99  A    between atoms: _249  and  _250
REMARK  100  A    between atoms: _249  and  _252
REMARK  101  A    between atoms: _252  and  _253
REMARK  102  A    between atoms: _255  and  _257
REMARK  103  A    between atoms: _257  and  _258
REMARK  104  A    between atoms: _257  and  _260
REMARK  105  A    between atoms: _260  and  _261
REMARK  106  A    between atoms: _266  and  _267
REMARK  107  A    between atoms: _269  and  _271
REMARK  108  A    between atoms: _271  and  _272
REMARK  109  A    between atoms: _271  and  _274
REMARK  110  A    between atoms: _274  and  _275
REMARK  111  A    between atoms: _280  and  _282
REMARK  112  A    between atoms: _282  and  _283
REMARK  113  A    between atoms: _282  and  _285
REMARK  114  A    between atoms: _288  and  _290
REMARK  115  A    between atoms: _290  and  _291
REMARK  116  A    between atoms: _290  and  _293
REMARK  117  A    between atoms: _293  and  _294
REMARK  118  A    between atoms: _294  and  _295
REMARK  119  A    between atoms: _295  and  _296
REMARK  120  A    between atoms: _305  and  _307
REMARK  121  A    between atoms: _307  and  _308
REMARK  122  A    between atoms: _307  and  _310
REMARK  123  A    between atoms: _310  and  _311
REMARK  124  A    between atoms: _316  and  _318
REMARK  125  A    between atoms: _318  and  _319
REMARK  126  A    between atoms: _318  and  _321
REMARK  127  A    between atoms: _321  and  _322
REMARK  128  A    between atoms: _325  and  _327
REMARK  129  A    between atoms: _327  and  _328
REMARK  130  A    between atoms: _330  and  _332
REMARK  131  A    between atoms: _332  and  _333
REMARK  132  A    between atoms: _332  and  _335
REMARK  133  A    between atoms: _335  and  _336
REMARK  134  A    between atoms: _346  and  _348
REMARK  135  A    between atoms: _348  and  _349
REMARK  136  A    between atoms: _348  and  _351
REMARK  137  A    between atoms: _351  and  _352
REMARK  138  A    between atoms: _353  and  _355
REMARK  139  A    between atoms: _355  and  _356
REMARK  140  A    between atoms: _355  and  _358
REMARK  141  A    between atoms: _358  and  _359
REMARK  142  A    between atoms: _362  and  _364
REMARK  143  A    between atoms: _364  and  _365
REMARK  144  A    between atoms: _367  and  _369
REMARK  145  A    between atoms: _369  and  _370
REMARK  146  A    between atoms: _369  and  _372
REMARK  147  A    between atoms: _372  and  _373
REMARK  148  A    between atoms: _378  and  _379
REMARK  149  A    between atoms: _381  and  _383
REMARK  150  A    between atoms: _383  and  _384
REMARK  151  A    between atoms: _383  and  _386
REMARK  152  A    between atoms: _386  and  _387
REMARK  153  A    between atoms: _387  and  _388
REMARK  154  A    between atoms: _388  and  _389
REMARK  155  A    between atoms: _398  and  _400
REMARK  156  A    between atoms: _400  and  _401
REMARK  157  A    between atoms: _400  and  _403
REMARK  158  A    between atoms: _403  and  _404
REMARK  159  A    between atoms: _407  and  _409
REMARK  160  A    between atoms: _409  and  _410
REMARK  161  A    between atoms: _409  and  _412
REMARK  162  A    between atoms: _412  and  _413
REMARK  163  A    between atoms: _413  and  _414
REMARK  164  A    between atoms: _414  and  _415
REMARK  165  A    between atoms: _415  and  _416
REMARK  166  A    between atoms: _420  and  _422
REMARK  167  A    between atoms: _422  and  _423
REMARK  168  A    between atoms: _425  and  _427
REMARK  169  A    between atoms: _427  and  _428
REMARK  170  A    between atoms: _431  and  _433
REMARK  171  A    between atoms: _433  and  _434
REMARK  172  A    between atoms: _433  and  _436
REMARK  173  A    between atoms: _436  and  _437
REMARK  174  A    between atoms: _442  and  _444
REMARK  175  A    between atoms: _444  and  _445
REMARK  176  A    between atoms: _448  and  _450
REMARK  177  A    between atoms: _450  and  _451
REMARK  178  A    between atoms: _454  and  _455
REMARK  179  A    between atoms: _460  and  _462
REMARK  180  A    between atoms: _462  and  _463
REMARK  181  A    between atoms: _462  and  _465
REMARK  182  A    between atoms: _465  and  _466
REMARK  183  A    between atoms: _469  and  _471
REMARK  184  A    between atoms: _471  and  _472
REMARK  185  A    between atoms: _471  and  _474
REMARK  186  A    between atoms: _474  and  _475
REMARK  187  A    between atoms: _485  and  _487
REMARK  188  A    between atoms: _487  and  _488
REMARK  189  A    between atoms: _487  and  _490
REMARK  190  A    between atoms: _490  and  _491
REMARK  191  A    between atoms: _497  and  _498
REMARK  192  A    between atoms: _503  and  _505
REMARK  193  A    between atoms: _505  and  _506
REMARK  194  A    between atoms: _505  and  _508
REMARK  195  A    between atoms: _508  and  _509
REMARK  196  A    between atoms: _514  and  _516
REMARK  197  A    between atoms: _516  and  _517
REMARK  198  A    between atoms: _516  and  _519
REMARK  199  A    between atoms: _522  and  _524
REMARK  200  A    between atoms: _524  and  _525
REMARK  201  A    between atoms: _524  and  _527
REMARK  202  A    between atoms: _527  and  _528
REMARK  203  A    between atoms: _528  and  _529
REMARK  204  A    between atoms: _535  and  _536
REMARK  205  A    between atoms: _541  and  _543
REMARK  206  A    between atoms: _543  and  _544
REMARK  207  A    between atoms: _543  and  _546
REMARK  208  A    between atoms: _546  and  _547
REMARK  209  A    between atoms: _550  and  _552
REMARK  210  A    between atoms: _552  and  _553
REMARK  211  A    between atoms: _552  and  _555
REMARK  212  A    between atoms: _555  and  _556
REMARK  213  A    between atoms: _558  and  _560
REMARK  214  A    between atoms: _560  and  _561
REMARK  215  A    between atoms: _560  and  _563
REMARK  216  A    between atoms: _563  and  _564
REMARK  217  A    between atoms: _569  and  _570
REMARK  218  A    between atoms: _572  and  _574
REMARK  219  A    between atoms: _574  and  _575
REMARK  220  A    between atoms: _574  and  _577
REMARK  221  A    between atoms: _577  and  _578
REMARK  222  A    between atoms: _588  and  _590
REMARK  223  A    between atoms: _590  and  _591
REMARK  224  A    between atoms: _593  and  _595
REMARK  225  A    between atoms: _595  and  _596
REMARK  226  A    between atoms: _599  and  _601
REMARK  227  A    between atoms: _601  and  _602
REMARK  228  A    between atoms: _601  and  _604
REMARK  229  A    between atoms: _604  and  _605
REMARK  230  A    between atoms: _610  and  _612
REMARK  231  A    between atoms: _612  and  _613
REMARK  232  A    between atoms: _616  and  _618
REMARK  233  A    between atoms: _618  and  _619
REMARK  234  A    between atoms: _622  and  _623
REMARK  235  A    between atoms: _628  and  _630
REMARK  236  A    between atoms: _630  and  _631
REMARK  237  A    between atoms: _630  and  _633
REMARK  238  A    between atoms: _633  and  _634
REMARK  239  A    between atoms: _637  and  _639
REMARK  240  A    between atoms: _639  and  _640
REMARK  241  A    between atoms: _639  and  _642
REMARK  242  A    between atoms: _642  and  _643
REMARK  243  A    between atoms: _653  and  _655
REMARK  244  A    between atoms: _655  and  _656
REMARK  245  A    between atoms: _655  and  _658
REMARK  246  A    between atoms: _658  and  _659
REMARK  247  A    between atoms: _664  and  _666
REMARK  248  A    between atoms: _666  and  _667
REMARK  249  A    between atoms: _666  and  _669
REMARK  250  A    between atoms: _669  and  _670
REMARK  251  A    between atoms: _673  and  _675
REMARK  252  A    between atoms: _675  and  _676
REMARK  253  A    between atoms: _675  and  _678
REMARK  254  A    between atoms: _678  and  _679
REMARK  255  A    between atoms: _679  and  _680
REMARK  256  A    between atoms: _683  and  _685
REMARK  257  A    between atoms: _685  and  _686
REMARK  258  A    between atoms: _685  and  _688
REMARK  259  A    between atoms: _688  and  _689
REMARK  260  A    between atoms: _689  and  _690
REMARK  261  A    between atoms: _690  and  _691
REMARK  262  A    between atoms: _691  and  _692
REMARK  263  A    between atoms: _696  and  _698
REMARK  264  A    between atoms: _698  and  _699
REMARK  265  A    between atoms: _698  and  _701
REMARK  266  A    between atoms: _701  and  _702
REMARK  267  A    between atoms: _707  and  _709
REMARK  268  A    between atoms: _709  and  _710
REMARK  269  A    between atoms: _709  and  _712
REMARK  270  A    between atoms: _712  and  _713
REMARK  271  A    between atoms: _713  and  _714
REMARK  272  A    between atoms: _714  and  _715
REMARK  273  A    between atoms: _724  and  _726
REMARK  274  A    between atoms: _726  and  _727
REMARK  275  A    between atoms: _726  and  _729
REMARK  276  A    between atoms: _729  and  _730
REMARK  277  A    between atoms: _733  and  _735
REMARK  278  A    between atoms: _735  and  _736
REMARK  279  A    between atoms: _735  and  _738
REMARK  280  A    between atoms: _741  and  _743
REMARK  281  A    between atoms: _743  and  _744
REMARK  282  A    between atoms: _743  and  _746
REMARK  283  A    between atoms: _746  and  _747
REMARK  284  A    between atoms: _747  and  _748
REMARK  285  A    between atoms: _754  and  _755
REMARK  286  A    between atoms: _760  and  _762
REMARK  287  A    between atoms: _762  and  _763
REMARK  288  A    between atoms: _762  and  _765
REMARK  289  A    between atoms: _765  and  _766
REMARK  290  A    between atoms: _769  and  _771
REMARK  291  A    between atoms: _771  and  _772
REMARK  292  A    between atoms: _771  and  _774
REMARK  293  A    between atoms: _774  and  _775
REMARK  294  A    between atoms: _775  and  _776
REMARK  295  A    between atoms: _776  and  _777
REMARK  296  A    between atoms: _786  and  _788
REMARK  297  A    between atoms: _788  and  _789
REMARK                            x       y       z     vdW  Elec       q    Type
REMARK                         _______ _______ _______ _____ _____    ______ ____
ROOT
ATOM      1  O   HOH     1      16.328  26.928 -29.933  0.00  0.00    +0.000 OA
ENDROOT
TORSDOF 0
REMARK  Name = ../refined-set-2016/3o4k/3o4k_pocket.pdb
REMARK  297 active torsions:
REMARK  status: ('A' for Active; 'I' for Inactive)
REMARK    1  A    between atoms: _1  and  _3
REMARK    2  A    between atoms: _3  and  _4
REMARK    3  A    between atoms: _3  and  _6
REMARK    4  A    between atoms: _6  and  _7
REMARK    5  A    between atoms: _7  and  _8
REMARK    6  A    between atoms: _8  and  _9
REMARK    7  A    between atoms: _18  and  _20
REMARK    8  A    between atoms: _20  and  _21
REMARK    9  A    between atoms: _20  and  _23
REMARK   10  A    between atoms: _23  and  _24
REMARK   11  A    between atoms: _29  and  _30
REMARK   12  A    between atoms: _32  and  _34
REMARK   13  A    between atoms: _34  and  _35
REMARK   14  A    between atoms: _34  and  _37
REMARK   15  A    between atoms: _37  and  _38
REMARK   16  A    between atoms: _48  and  _50
REMARK   17  A    between atoms: _50  and  _51
REMARK   18  A    between atoms: _50  and  _53
REMARK   19  A    between atoms: _53  and  _54
REMARK   20  A    between atoms: _54  and  _55
REMARK   21  A    between atoms: _55  and  _56
REMARK   22  A    between atoms: _65  and  _67
REMARK   23  A    between atoms: _67  and  _68
REMARK   24  A    between atoms: _67  and  _70
REMARK   25  A    between atoms: _70  and  _71
REMARK   26  A    between atoms: _73  and  _75
REMARK   27  A    between atoms: _75  and  _76
REMARK   28  A    between atoms: _75  and  _78
REMARK   29  A    between atoms: _78  and  _79
REMARK   30  A    between atoms: _84  and  _86
REMARK   31  A    between atoms: _86  and  _87
REMARK   32  A    between atoms: _86  and  _89
REMARK   33  A    between atoms: _89  and  _90
REMARK   34  A    between atoms: _95  and  _96
REMARK   35  A    between atoms: _98  and  _100
REMARK   36  A    between atoms: _100  and  _101
REMARK   37  A    between atoms: _100  and  _103
REMARK   38  A    between atoms: _103  and  _104
REMARK   39  A    between atoms: _104  and  _105
REMARK   40  A    between atoms: _108  and  _110
REMARK   41  A    between atoms: _110  and  _111
REMARK   42  A    between atoms: _110  and  _113
REMARK   43  A    between atoms: _116  and  _118
REMARK   44  A    between atoms: _118  and  _119
REMARK   45  A    between atoms: _118  and  _121
REMARK   46  A    between atoms: _121  and  _122
REMARK   47  A    between atoms: _122  and  _123
REMARK   48  A    between atoms: _123  and  _124
REMARK   49  A    between atoms: _124  and  _125
REMARK   50  A    between atoms: _129  and  _131
REMARK   51  A    between atoms: _131  and  _132
REMARK   52  A    between atoms: _131  and  _134
REMARK   53  A    between atoms: _134  and  _135
REMARK   54  A    between atoms: _140  and  _142
REMARK   55  A    between atoms: _142  and  _143
REMARK   56  A    between atoms: _142  and  _145
REMARK   57  A    between atoms: _145  and  _146
REMARK   58  A    between atoms: _151  and  _152
REMARK   59  A    between atoms: _154  and  _156
REMARK   60  A    between atoms: _156  and  _157
REMARK   61  A    between atoms: _156  and  _159
REMARK   62  A    between atoms: _159  and  _160
REMARK   63  A    between atoms: _160  and  _161
REMARK   64  A    between atoms: _161  and  _162
REMARK   65  A    between atoms: _171  and  _173
REMARK   66  A    between atoms: _173  and  _174
REMARK   67  A    between atoms: _178  and  _180
REMARK   68  A    between atoms: _180  and  _181
REMARK   69  A    between atoms: _180  and  _183
REMARK   70  A    between atoms: _183  and  _184
REMARK   71  A    between atoms: _186  and  _188
REMARK   72  A    between atoms: _188  and  _189
REMARK   73  A    between atoms: _188  and  _191
REMARK   74  A    between atoms: _191  and  _192
REMARK   75  A    between atoms: _192  and  _193
REMARK   76  A    between atoms: _196  and  _198
REMARK   77  A    between atoms: _198  and  _199
REMARK   78  A    between atoms: _198  and  _201
REMARK   79  A    between atoms: _201  and  _202
REMARK   80  A    between atoms: _202  and  _352
REMARK   81  A    between atoms: _203  and  _205
REMARK   82  A    between atoms: _205  and  _206
REMARK   83  A    between atoms: _205  and  _208
REMARK   84  A    between atoms: _208  and  _209
REMARK   85  A    between atoms: _209  and  _210
REMARK   86  A    between atoms: _210  and  _211
REMARK   87  A    between atoms: _220  and  _222
REMARK   88  A    between atoms: _222  and  _223
REMARK   89  A    between atoms: _222  and  _225
REMARK   90  A    between atoms: _225  and  _226
REMARK   91  A    between atoms: _226  and  _227
REMARK   92  A    between atoms: _230  and  _232
REMARK   93  A    between atoms: _232  and  _233
REMARK   94  A    between atoms: _232  and  _235
REMARK   95  A    between atoms: _235  and  _236
REMARK   96  A    between atoms: _236  and  _237
REMARK   97  A    between atoms: _237  and  _238
REMARK   98  A    between atoms: _247  and  _249
REMARK   99  A    between atoms: _249  and  _250
REMARK  100  A    between atoms: _249  and  _252
REMARK  101  A    between atoms: _252  and  _253
REMARK  102  A    between atoms: _255  and  _257
REMARK  103  A    between atoms: _257  and  _258
REMARK  104  A    between atoms: _257  and  _260
REMARK  105  A    between atoms: _260  and  _261
REMARK  106  A    between atoms: _266  and  _267
REMARK  107  A    between atoms: _269  and  _271
REMARK  108  A    between atoms: _271  and  _272
REMARK  109  A    between atoms: _271  and  _274
REMARK  110  A    between atoms: _274  and  _275
REMARK  111  A    between atoms: _280  and  _282
REMARK  112  A    between atoms: _282  and  _283
REMARK  113  A    between atoms: _282  and  _285
REMARK  114  A    between atoms: _288  and  _290
REMARK  115  A    between atoms: _290  and  _291
REMARK  116  A    between atoms: _290  and  _293
REMARK  117  A    between atoms: _293  and  _294
REMARK  118  A    between atoms: _294  and  _295
REMARK  119  A    between atoms: _295  and  _296
REMARK  120  A    between atoms: _305  and  _307
REMARK  121  A    between atoms: _307  and  _308
REMARK  122  A    between atoms: _307  and  _310
REMARK  123  A    between atoms: _310  and  _311
REMARK  124  A    between atoms: _316  and  _318
REMARK  125  A    between atoms: _318  and  _319
REMARK  126  A    between atoms: _318  and  _321
REMARK  127  A    between atoms: _321  and  _322
REMARK  128  A    between atoms: _325  and  _327
REMARK  129  A    between atoms: _327  and  _328
REMARK  130  A    between atoms: _330  and  _332
REMARK  131  A    between atoms: _332  and  _333
REMARK  132  A    between atoms: _332  and  _335
REMARK  133  A    between atoms: _335  and  _336
REMARK  134  A    between atoms: _346  and  _348
REMARK  135  A    between atoms: _348  and  _349
REMARK  136  A    between atoms: _348  and  _351
REMARK  137  A    between atoms: _351  and  _352
REMARK  138  A    between atoms: _353  and  _355
REMARK  139  A    between atoms: _355  and  _356
REMARK  140  A    between atoms: _355  and  _358
REMARK  141  A    between atoms: _358  and  _359
REMARK  142  A    between atoms: _362  and  _364
REMARK  143  A    between atoms: _364  and  _365
REMARK  144  A    between atoms: _367  and  _369
REMARK  145  A    between atoms: _369  and  _370
REMARK  146  A    between atoms: _369  and  _372
REMARK  147  A    between atoms: _372  and  _373
REMARK  148  A    between atoms: _378  and  _379
REMARK  149  A    between atoms: _381  and  _383
REMARK  150  A    between atoms: _383  and  _384
REMARK  151  A    between atoms: _383  and  _386
REMARK  152  A    between atoms: _386  and  _387
REMARK  153  A    between atoms: _387  and  _388
REMARK  154  A    between atoms: _388  and  _389
REMARK  155  A    between atoms: _398  and  _400
REMARK  156  A    between atoms: _400  and  _401
REMARK  157  A    between atoms: _400  and  _403
REMARK  158  A    between atoms: _403  and  _404
REMARK  159  A    between atoms: _407  and  _409
REMARK  160  A    between atoms: _409  and  _410
REMARK  161  A    between atoms: _409  and  _412
REMARK  162  A    between atoms: _412  and  _413
REMARK  163  A    between atoms: _413  and  _414
REMARK  164  A    between atoms: _414  and  _415
REMARK  165  A    between atoms: _415  and  _416
REMARK  166  A    between atoms: _420  and  _422
REMARK  167  A    between atoms: _422  and  _423
REMARK  168  A    between atoms: _425  and  _427
REMARK  169  A    between atoms: _427  and  _428
REMARK  170  A    between atoms: _431  and  _433
REMARK  171  A    between atoms: _433  and  _434
REMARK  172  A    between atoms: _433  and  _436
REMARK  173  A    between atoms: _436  and  _437
REMARK  174  A    between atoms: _442  and  _444
REMARK  175  A    between atoms: _444  and  _445
REMARK  176  A    between atoms: _448  and  _450
REMARK  177  A    between atoms: _450  and  _451
REMARK  178  A    between atoms: _454  and  _455
REMARK  179  A    between atoms: _460  and  _462
REMARK  180  A    between atoms: _462  and  _463
REMARK  181  A    between atoms: _462  and  _465
REMARK  182  A    between atoms: _465  and  _466
REMARK  183  A    between atoms: _469  and  _471
REMARK  184  A    between atoms: _471  and  _472
REMARK  185  A    between atoms: _471  and  _474
REMARK  186  A    between atoms: _474  and  _475
REMARK  187  A    between atoms: _485  and  _487
REMARK  188  A    between atoms: _487  and  _488
REMARK  189  A    between atoms: _487  and  _490
REMARK  190  A    between atoms: _490  and  _491
REMARK  191  A    between atoms: _497  and  _498
REMARK  192  A    between atoms: _503  and  _505
REMARK  193  A    between atoms: _505  and  _506
REMARK  194  A    between atoms: _505  and  _508
REMARK  195  A    between atoms: _508  and  _509
REMARK  196  A    between atoms: _514  and  _516
REMARK  197  A    between atoms: _516  and  _517
REMARK  198  A    between atoms: _516  and  _519
REMARK  199  A    between atoms: _522  and  _524
REMARK  200  A    between atoms: _524  and  _525
REMARK  201  A    between atoms: _524  and  _527
REMARK  202  A    between atoms: _527  and  _528
REMARK  203  A    between atoms: _528  and  _529
REMARK  204  A    between atoms: _535  and  _536
REMARK  205  A    between atoms: _541  and  _543
REMARK  206  A    between atoms: _543  and  _544
REMARK  207  A    between atoms: _543  and  _546
REMARK  208  A    between atoms: _546  and  _547
REMARK  209  A    between atoms: _550  and  _552
REMARK  210  A    between atoms: _552  and  _553
REMARK  211  A    between atoms: _552  and  _555
REMARK  212  A    between atoms: _555  and  _556
REMARK  213  A    between atoms: _558  and  _560
REMARK  214  A    between atoms: _560  and  _561
REMARK  215  A    between atoms: _560  and  _563
REMARK  216  A    between atoms: _563  and  _564
REMARK  217  A    between atoms: _569  and  _570
REMARK  218  A    between atoms: _572  and  _574
REMARK  219  A    between atoms: _574  and  _575
REMARK  220  A    between atoms: _574  and  _577
REMARK  221  A    between atoms: _577  and  _578
REMARK  222  A    between atoms: _588  and  _590
REMARK  223  A    between atoms: _590  and  _591
REMARK  224  A    between atoms: _593  and  _595
REMARK  225  A    between atoms: _595  and  _596
REMARK  226  A    between atoms: _599  and  _601
REMARK  227  A    between atoms: _601  and  _602
REMARK  228  A    between atoms: _601  and  _604
REMARK  229  A    between atoms: _604  and  _605
REMARK  230  A    between atoms: _610  and  _612
REMARK  231  A    between atoms: _612  and  _613
REMARK  232  A    between atoms: _616  and  _618
REMARK  233  A    between atoms: _618  and  _619
REMARK  234  A    between atoms: _622  and  _623
REMARK  235  A    between atoms: _628  and  _630
REMARK  236  A    between atoms: _630  and  _631
REMARK  237  A    between atoms: _630  and  _633
REMARK  238  A    between atoms: _633  and  _634
REMARK  239  A    between atoms: _637  and  _639
REMARK  240  A    between atoms: _639  and  _640
REMARK  241  A    between atoms: _639  and  _642
REMARK  242  A    between atoms: _642  and  _643
REMARK  243  A    between atoms: _653  and  _655
REMARK  244  A    between atoms: _655  and  _656
REMARK  245  A    between atoms: _655  and  _658
REMARK  246  A    between atoms: _658  and  _659
REMARK  247  A    between atoms: _664  and  _666
REMARK  248  A    between atoms: _666  and  _667
REMARK  249  A    between atoms: _666  and  _669
REMARK  250  A    between atoms: _669  and  _670
REMARK  251  A    between atoms: _673  and  _675
REMARK  252  A    between atoms: _675  and  _676
REMARK  253  A    between atoms: _675  and  _678
REMARK  254  A    between atoms: _678  and  _679
REMARK  255  A    between atoms: _679  and  _680
REMARK  256  A    between atoms: _683  and  _685
REMARK  257  A    between atoms: _685  and  _686
REMARK  258  A    between atoms: _685  and  _688
REMARK  259  A    between atoms: _688  and  _689
REMARK  260  A    between atoms: _689  and  _690
REMARK  261  A    between atoms: _690  and  _691
REMARK  262  A    between atoms: _691  and  _692
REMARK  263  A    between atoms: _696  and  _698
REMARK  264  A    between atoms: _698  and  _699
REMARK  265  A    between atoms: _698  and  _701
REMARK  266  A    between atoms: _701  and  _702
REMARK  267  A    between atoms: _707  and  _709
REMARK  268  A    between atoms: _709  and  _710
REMARK  269  A    between atoms: _709  and  _712
REMARK  270  A    between atoms: _712  and  _713
REMARK  271  A    between atoms: _713  and  _714
REMARK  272  A    between atoms: _714  and  _715
REMARK  273  A    between atoms: _724  and  _726
REMARK  274  A    between atoms: _726  and  _727
REMARK  275  A    between atoms: _726  and  _729
REMARK  276  A    between atoms: _729  and  _730
REMARK  277  A    between atoms: _733  and  _735
REMARK  278  A    between atoms: _735  and  _736
REMARK  279  A    between atoms: _735  and  _738
REMARK  280  A    between atoms: _741  and  _743
REMARK  281  A    between atoms: _743  and  _744
REMARK  282  A    between atoms: _743  and  _746
REMARK  283  A    between atoms: _746  and  _747
REMARK  284  A    between atoms: _747  and  _748
REMARK  285  A    between atoms: _754  and  _755
REMARK  286  A    between atoms: _760  and  _762
REMARK  287  A    between atoms: _762  and  _763
REMARK  288  A    between atoms: _762  and  _765
REMARK  289  A    between atoms: _765  and  _766
REMARK  290  A    between atoms: _769  and  _771
REMARK  291  A    between atoms: _771  and  _772
REMARK  292  A    between atoms: _771  and  _774
REMARK  293  A    between atoms: _774  and  _775
REMARK  294  A    between atoms: _775  and  _776
REMARK  295  A    between atoms: _776  and  _777
REMARK  296  A    between atoms: _786  and  _788
REMARK  297  A    between atoms: _788  and  _789
REMARK                            x       y       z     vdW  Elec       q    Type
REMARK                         _______ _______ _______ _____ _____    ______ ____
ROOT
ATOM      1  O   HOH     1      12.655  30.105 -15.311  0.00  0.00    +0.000 OA
ENDROOT
TORSDOF 0
REMARK  Name = ../refined-set-2016/3o4k/3o4k_pocket.pdb
REMARK  297 active torsions:
REMARK  status: ('A' for Active; 'I' for Inactive)
REMARK    1  A    between atoms: _1  and  _3
REMARK    2  A    between atoms: _3  and  _4
REMARK    3  A    between atoms: _3  and  _6
REMARK    4  A    between atoms: _6  and  _7
REMARK    5  A    between atoms: _7  and  _8
REMARK    6  A    between atoms: _8  and  _9
REMARK    7  A    between atoms: _18  and  _20
REMARK    8  A    between atoms: _20  and  _21
REMARK    9  A    between atoms: _20  and  _23
REMARK   10  A    between atoms: _23  and  _24
REMARK   11  A    between atoms: _29  and  _30
REMARK   12  A    between atoms: _32  and  _34
REMARK   13  A    between atoms: _34  and  _35
REMARK   14  A    between atoms: _34  and  _37
REMARK   15  A    between atoms: _37  and  _38
REMARK   16  A    between atoms: _48  and  _50
REMARK   17  A    between atoms: _50  and  _51
REMARK   18  A    between atoms: _50  and  _53
REMARK   19  A    between atoms: _53  and  _54
REMARK   20  A    between atoms: _54  and  _55
REMARK   21  A    between atoms: _55  and  _56
REMARK   22  A    between atoms: _65  and  _67
REMARK   23  A    between atoms: _67  and  _68
REMARK   24  A    between atoms: _67  and  _70
REMARK   25  A    between atoms: _70  and  _71
REMARK   26  A    between atoms: _73  and  _75
REMARK   27  A    between atoms: _75  and  _76
REMARK   28  A    between atoms: _75  and  _78
REMARK   29  A    between atoms: _78  and  _79
REMARK   30  A    between atoms: _84  and  _86
REMARK   31  A    between atoms: _86  and  _87
REMARK   32  A    between atoms: _86  and  _89
REMARK   33  A    between atoms: _89  and  _90
REMARK   34  A    between atoms: _95  and  _96
REMARK   35  A    between atoms: _98  and  _100
REMARK   36  A    between atoms: _100  and  _101
REMARK   37  A    between atoms: _100  and  _103
REMARK   38  A    between atoms: _103  and  _104
REMARK   39  A    between atoms: _104  and  _105
REMARK   40  A    between atoms: _108  and  _110
REMARK   41  A    between atoms: _110  and  _111
REMARK   42  A    between atoms: _110  and  _113
REMARK   43  A    between atoms: _116  and  _118
REMARK   44  A    between atoms: _118  and  _119
REMARK   45  A    between atoms: _118  and  _121
REMARK   46  A    between atoms: _121  and  _122
REMARK   47  A    between atoms: _122  and  _123
REMARK   48  A    between atoms: _123  and  _124
REMARK   49  A    between atoms: _124  and  _125
REMARK   50  A    between atoms: _129  and  _131
REMARK   51  A    between atoms: _131  and  _132
REMARK   52  A    between atoms: _131  and  _134
REMARK   53  A    between atoms: _134  and  _135
REMARK   54  A    between atoms: _140  and  _142
REMARK   55  A    between atoms: _142  and  _143
REMARK   56  A    between atoms: _142  and  _145
REMARK   57  A    between atoms: _145  and  _146
REMARK   58  A    between atoms: _151  and  _152
REMARK   59  A    between atoms: _154  and  _156
REMARK   60  A    between atoms: _156  and  _157
REMARK   61  A    between atoms: _156  and  _159
REMARK   62  A    between atoms: _159  and  _160
REMARK   63  A    between atoms: _160  and  _161
REMARK   64  A    between atoms: _161  and  _162
REMARK   65  A    between atoms: _171  and  _173
REMARK   66  A    between atoms: _173  and  _174
REMARK   67  A    between atoms: _178  and  _180
REMARK   68  A    between atoms: _180  and  _181
REMARK   69  A    between atoms: _180  and  _183
REMARK   70  A    between atoms: _183  and  _184
REMARK   71  A    between atoms: _186  and  _188
REMARK   72  A    between atoms: _188  and  _189
REMARK   73  A    between atoms: _188  and  _191
REMARK   74  A    between atoms: _191  and  _192
REMARK   75  A    between atoms: _192  and  _193
REMARK   76  A    between atoms: _196  and  _198
REMARK   77  A    between atoms: _198  and  _199
REMARK   78  A    between atoms: _198  and  _201
REMARK   79  A    between atoms: _201  and  _202
REMARK   80  A    between atoms: _202  and  _352
REMARK   81  A    between atoms: _203  and  _205
REMARK   82  A    between atoms: _205  and  _206
REMARK   83  A    between atoms: _205  and  _208
REMARK   84  A    between atoms: _208  and  _209
REMARK   85  A    between atoms: _209  and  _210
REMARK   86  A    between atoms: _210  and  _211
REMARK   87  A    between atoms: _220  and  _222
REMARK   88  A    between atoms: _222  and  _223
REMARK   89  A    between atoms: _222  and  _225
REMARK   90  A    between atoms: _225  and  _226
REMARK   91  A    between atoms: _226  and  _227
REMARK   92  A    between atoms: _230  and  _232
REMARK   93  A    between atoms: _232  and  _233
REMARK   94  A    between atoms: _232  and  _235
REMARK   95  A    between atoms: _235  and  _236
REMARK   96  A    between atoms: _236  and  _237
REMARK   97  A    between atoms: _237  and  _238
REMARK   98  A    between atoms: _247  and  _249
REMARK   99  A    between atoms: _249  and  _250
REMARK  100  A    between atoms: _249  and  _252
REMARK  101  A    between atoms: _252  and  _253
REMARK  102  A    between atoms: _255  and  _257
REMARK  103  A    between atoms: _257  and  _258
REMARK  104  A    between atoms: _257  and  _260
REMARK  105  A    between atoms: _260  and  _261
REMARK  106  A    between atoms: _266  and  _267
REMARK  107  A    between atoms: _269  and  _271
REMARK  108  A    between atoms: _271  and  _272
REMARK  109  A    between atoms: _271  and  _274
REMARK  110  A    between atoms: _274  and  _275
REMARK  111  A    between atoms: _280  and  _282
REMARK  112  A    between atoms: _282  and  _283
REMARK  113  A    between atoms: _282  and  _285
REMARK  114  A    between atoms: _288  and  _290
REMARK  115  A    between atoms: _290  and  _291
REMARK  116  A    between atoms: _290  and  _293
REMARK  117  A    between atoms: _293  and  _294
REMARK  118  A    between atoms: _294  and  _295
REMARK  119  A    between atoms: _295  and  _296
REMARK  120  A    between atoms: _305  and  _307
REMARK  121  A    between atoms: _307  and  _308
REMARK  122  A    between atoms: _307  and  _310
REMARK  123  A    between atoms: _310  and  _311
REMARK  124  A    between atoms: _316  and  _318
REMARK  125  A    between atoms: _318  and  _319
REMARK  126  A    between atoms: _318  and  _321
REMARK  127  A    between atoms: _321  and  _322
REMARK  128  A    between atoms: _325  and  _327
REMARK  129  A    between atoms: _327  and  _328
REMARK  130  A    between atoms: _330  and  _332
REMARK  131  A    between atoms: _332  and  _333
REMARK  132  A    between atoms: _332  and  _335
REMARK  133  A    between atoms: _335  and  _336
REMARK  134  A    between atoms: _346  and  _348
REMARK  135  A    between atoms: _348  and  _349
REMARK  136  A    between atoms: _348  and  _351
REMARK  137  A    between atoms: _351  and  _352
REMARK  138  A    between atoms: _353  and  _355
REMARK  139  A    between atoms: _355  and  _356
REMARK  140  A    between atoms: _355  and  _358
REMARK  141  A    between atoms: _358  and  _359
REMARK  142  A    between atoms: _362  and  _364
REMARK  143  A    between atoms: _364  and  _365
REMARK  144  A    between atoms: _367  and  _369
REMARK  145  A    between atoms: _369  and  _370
REMARK  146  A    between atoms: _369  and  _372
REMARK  147  A    between atoms: _372  and  _373
REMARK  148  A    between atoms: _378  and  _379
REMARK  149  A    between atoms: _381  and  _383
REMARK  150  A    between atoms: _383  and  _384
REMARK  151  A    between atoms: _383  and  _386
REMARK  152  A    between atoms: _386  and  _387
REMARK  153  A    between atoms: _387  and  _388
REMARK  154  A    between atoms: _388  and  _389
REMARK  155  A    between atoms: _398  and  _400
REMARK  156  A    between atoms: _400  and  _401
REMARK  157  A    between atoms: _400  and  _403
REMARK  158  A    between atoms: _403  and  _404
REMARK  159  A    between atoms: _407  and  _409
REMARK  160  A    between atoms: _409  and  _410
REMARK  161  A    between atoms: _409  and  _412
REMARK  162  A    between atoms: _412  and  _413
REMARK  163  A    between atoms: _413  and  _414
REMARK  164  A    between atoms: _414  and  _415
REMARK  165  A    between atoms: _415  and  _416
REMARK  166  A    between atoms: _420  and  _422
REMARK  167  A    between atoms: _422  and  _423
REMARK  168  A    between atoms: _425  and  _427
REMARK  169  A    between atoms: _427  and  _428
REMARK  170  A    between atoms: _431  and  _433
REMARK  171  A    between atoms: _433  and  _434
REMARK  172  A    between atoms: _433  and  _436
REMARK  173  A    between atoms: _436  and  _437
REMARK  174  A    between atoms: _442  and  _444
REMARK  175  A    between atoms: _444  and  _445
REMARK  176  A    between atoms: _448  and  _450
REMARK  177  A    between atoms: _450  and  _451
REMARK  178  A    between atoms: _454  and  _455
REMARK  179  A    between atoms: _460  and  _462
REMARK  180  A    between atoms: _462  and  _463
REMARK  181  A    between atoms: _462  and  _465
REMARK  182  A    between atoms: _465  and  _466
REMARK  183  A    between atoms: _469  and  _471
REMARK  184  A    between atoms: _471  and  _472
REMARK  185  A    between atoms: _471  and  _474
REMARK  186  A    between atoms: _474  and  _475
REMARK  187  A    between atoms: _485  and  _487
REMARK  188  A    between atoms: _487  and  _488
REMARK  189  A    between atoms: _487  and  _490
REMARK  190  A    between atoms: _490  and  _491
REMARK  191  A    between atoms: _497  and  _498
REMARK  192  A    between atoms: _503  and  _505
REMARK  193  A    between atoms: _505  and  _506
REMARK  194  A    between atoms: _505  and  _508
REMARK  195  A    between atoms: _508  and  _509
REMARK  196  A    between atoms: _514  and  _516
REMARK  197  A    between atoms: _516  and  _517
REMARK  198  A    between atoms: _516  and  _519
REMARK  199  A    between atoms: _522  and  _524
REMARK  200  A    between atoms: _524  and  _525
REMARK  201  A    between atoms: _524  and  _527
REMARK  202  A    between atoms: _527  and  _528
REMARK  203  A    between atoms: _528  and  _529
REMARK  204  A    between atoms: _535  and  _536
REMARK  205  A    between atoms: _541  and  _543
REMARK  206  A    between atoms: _543  and  _544
REMARK  207  A    between atoms: _543  and  _546
REMARK  208  A    between atoms: _546  and  _547
REMARK  209  A    between atoms: _550  and  _552
REMARK  210  A    between atoms: _552  and  _553
REMARK  211  A    between atoms: _552  and  _555
REMARK  212  A    between atoms: _555  and  _556
REMARK  213  A    between atoms: _558  and  _560
REMARK  214  A    between atoms: _560  and  _561
REMARK  215  A    between atoms: _560  and  _563
REMARK  216  A    between atoms: _563  and  _564
REMARK  217  A    between atoms: _569  and  _570
REMARK  218  A    between atoms: _572  and  _574
REMARK  219  A    between atoms: _574  and  _575
REMARK  220  A    between atoms: _574  and  _577
REMARK  221  A    between atoms: _577  and  _578
REMARK  222  A    between atoms: _588  and  _590
REMARK  223  A    between atoms: _590  and  _591
REMARK  224  A    between atoms: _593  and  _595
REMARK  225  A    between atoms: _595  and  _596
REMARK  226  A    between atoms: _599  and  _601
REMARK  227  A    between atoms: _601  and  _602
REMARK  228  A    between atoms: _601  and  _604
REMARK  229  A    between atoms: _604  and  _605
REMARK  230  A    between atoms: _610  and  _612
REMARK  231  A    between atoms: _612  and  _613
REMARK  232  A    between atoms: _616  and  _618
REMARK  233  A    between atoms: _618  and  _619
REMARK  234  A    between atoms: _622  and  _623
REMARK  235  A    between atoms: _628  and  _630
REMARK  236  A    between atoms: _630  and  _631
REMARK  237  A    between atoms: _630  and  _633
REMARK  238  A    between atoms: _633  and  _634
REMARK  239  A    between atoms: _637  and  _639
REMARK  240  A    between atoms: _639  and  _640
REMARK  241  A    between atoms: _639  and  _642
REMARK  242  A    between atoms: _642  and  _643
REMARK  243  A    between atoms: _653  and  _655
REMARK  244  A    between atoms: _655  and  _656
REMARK  245  A    between atoms: _655  and  _658
REMARK  246  A    between atoms: _658  and  _659
REMARK  247  A    between atoms: _664  and  _666
REMARK  248  A    between atoms: _666  and  _667
REMARK  249  A    between atoms: _666  and  _669
REMARK  250  A    between atoms: _669  and  _670
REMARK  251  A    between atoms: _673  and  _675
REMARK  252  A    between atoms: _675  and  _676
REMARK  253  A    between atoms: _675  and  _678
REMARK  254  A    between atoms: _678  and  _679
REMARK  255  A    between atoms: _679  and  _680
REMARK  256  A    between atoms: _683  and  _685
REMARK  257  A    between atoms: _685  and  _686
REMARK  258  A    between atoms: _685  and  _688
REMARK  259  A    between atoms: _688  and  _689
REMARK  260  A    between atoms: _689  and  _690
REMARK  261  A    between atoms: _690  and  _691
REMARK  262  A    between atoms: _691  and  _692
REMARK  263  A    between atoms: _696  and  _698
REMARK  264  A    between atoms: _698  and  _699
REMARK  265  A    between atoms: _698  and  _701
REMARK  266  A    between atoms: _701  and  _702
REMARK  267  A    between atoms: _707  and  _709
REMARK  268  A    between atoms: _709  and  _710
REMARK  269  A    between atoms: _709  and  _712
REMARK  270  A    between atoms: _712  and  _713
REMARK  271  A    between atoms: _713  and  _714
REMARK  272  A    between atoms: _714  and  _715
REMARK  273  A    between atoms: _724  and  _726
REMARK  274  A    between atoms: _726  and  _727
REMARK  275  A    between atoms: _726  and  _729
REMARK  276  A    between atoms: _729  and  _730
REMARK  277  A    between atoms: _733  and  _735
REMARK  278  A    between atoms: _735  and  _736
REMARK  279  A    between atoms: _735  and  _738
REMARK  280  A    between atoms: _741  and  _743
REMARK  281  A    between atoms: _743  and  _744
REMARK  282  A    between atoms: _743  and  _746
REMARK  283  A    between atoms: _746  and  _747
REMARK  284  A    between atoms: _747  and  _748
REMARK  285  A    between atoms: _754  and  _755
REMARK  286  A    between atoms: _760  and  _762
REMARK  287  A    between atoms: _762  and  _763
REMARK  288  A    between atoms: _762  and  _765
REMARK  289  A    between atoms: _765  and  _766
REMARK  290  A    between atoms: _769  and  _771
REMARK  291  A    between atoms: _771  and  _772
REMARK  292  A    between atoms: _771  and  _774
REMARK  293  A    between atoms: _774  and  _775
REMARK  294  A    between atoms: _775  and  _776
REMARK  295  A    between atoms: _776  and  _777
REMARK  296  A    between atoms: _786  and  _788
REMARK  297  A    between atoms: _788  and  _789
REMARK                            x       y       z     vdW  Elec       q    Type
REMARK                         _______ _______ _______ _____ _____    ______ ____
ROOT
ATOM      1  O   HOH     1       5.037  27.218 -34.369  0.00  0.00    +0.000 OA
ENDROOT
TORSDOF 0
REMARK  Name = ../refined-set-2016/3o4k/3o4k_pocket.pdb
REMARK  297 active torsions:
REMARK  status: ('A' for Active; 'I' for Inactive)
REMARK    1  A    between atoms: _1  and  _3
REMARK    2  A    between atoms: _3  and  _4
REMARK    3  A    between atoms: _3  and  _6
REMARK    4  A    between atoms: _6  and  _7
REMARK    5  A    between atoms: _7  and  _8
REMARK    6  A    between atoms: _8  and  _9
REMARK    7  A    between atoms: _18  and  _20
REMARK    8  A    between atoms: _20  and  _21
REMARK    9  A    between atoms: _20  and  _23
REMARK   10  A    between atoms: _23  and  _24
REMARK   11  A    between atoms: _29  and  _30
REMARK   12  A    between atoms: _32  and  _34
REMARK   13  A    between atoms: _34  and  _35
REMARK   14  A    between atoms: _34  and  _37
REMARK   15  A    between atoms: _37  and  _38
REMARK   16  A    between atoms: _48  and  _50
REMARK   17  A    between atoms: _50  and  _51
REMARK   18  A    between atoms: _50  and  _53
REMARK   19  A    between atoms: _53  and  _54
REMARK   20  A    between atoms: _54  and  _55
REMARK   21  A    between atoms: _55  and  _56
REMARK   22  A    between atoms: _65  and  _67
REMARK   23  A    between atoms: _67  and  _68
REMARK   24  A    between atoms: _67  and  _70
REMARK   25  A    between atoms: _70  and  _71
REMARK   26  A    between atoms: _73  and  _75
REMARK   27  A    between atoms: _75  and  _76
REMARK   28  A    between atoms: _75  and  _78
REMARK   29  A    between atoms: _78  and  _79
REMARK   30  A    between atoms: _84  and  _86
REMARK   31  A    between atoms: _86  and  _87
REMARK   32  A    between atoms: _86  and  _89
REMARK   33  A    between atoms: _89  and  _90
REMARK   34  A    between atoms: _95  and  _96
REMARK   35  A    between atoms: _98  and  _100
REMARK   36  A    between atoms: _100  and  _101
REMARK   37  A    between atoms: _100  and  _103
REMARK   38  A    between atoms: _103  and  _104
REMARK   39  A    between atoms: _104  and  _105
REMARK   40  A    between atoms: _108  and  _110
REMARK   41  A    between atoms: _110  and  _111
REMARK   42  A    between atoms: _110  and  _113
REMARK   43  A    between atoms: _116  and  _118
REMARK   44  A    between atoms: _118  and  _119
REMARK   45  A    between atoms: _118  and  _121
REMARK   46  A    between atoms: _121  and  _122
REMARK   47  A    between atoms: _122  and  _123
REMARK   48  A    between atoms: _123  and  _124
REMARK   49  A    between atoms: _124  and  _125
REMARK   50  A    between atoms: _129  and  _131
REMARK   51  A    between atoms: _131  and  _132
REMARK   52  A    between atoms: _131  and  _134
REMARK   53  A    between atoms: _134  and  _135
REMARK   54  A    between atoms: _140  and  _142
REMARK   55  A    between atoms: _142  and  _143
REMARK   56  A    between atoms: _142  and  _145
REMARK   57  A    between atoms: _145  and  _146
REMARK   58  A    between atoms: _151  and  _152
REMARK   59  A    between atoms: _154  and  _156
REMARK   60  A    between atoms: _156  and  _157
REMARK   61  A    between atoms: _156  and  _159
REMARK   62  A    between atoms: _159  and  _160
REMARK   63  A    between atoms: _160  and  _161
REMARK   64  A    between atoms: _161  and  _162
REMARK   65  A    between atoms: _171  and  _173
REMARK   66  A    between atoms: _173  and  _174
REMARK   67  A    between atoms: _178  and  _180
REMARK   68  A    between atoms: _180  and  _181
REMARK   69  A    between atoms: _180  and  _183
REMARK   70  A    between atoms: _183  and  _184
REMARK   71  A    between atoms: _186  and  _188
REMARK   72  A    between atoms: _188  and  _189
REMARK   73  A    between atoms: _188  and  _191
REMARK   74  A    between atoms: _191  and  _192
REMARK   75  A    between atoms: _192  and  _193
REMARK   76  A    between atoms: _196  and  _198
REMARK   77  A    between atoms: _198  and  _199
REMARK   78  A    between atoms: _198  and  _201
REMARK   79  A    between atoms: _201  and  _202
REMARK   80  A    between atoms: _202  and  _352
REMARK   81  A    between atoms: _203  and  _205
REMARK   82  A    between atoms: _205  and  _206
REMARK   83  A    between atoms: _205  and  _208
REMARK   84  A    between atoms: _208  and  _209
REMARK   85  A    between atoms: _209  and  _210
REMARK   86  A    between atoms: _210  and  _211
REMARK   87  A    between atoms: _220  and  _222
REMARK   88  A    between atoms: _222  and  _223
REMARK   89  A    between atoms: _222  and  _225
REMARK   90  A    between atoms: _225  and  _226
REMARK   91  A    between atoms: _226  and  _227
REMARK   92  A    between atoms: _230  and  _232
REMARK   93  A    between atoms: _232  and  _233
REMARK   94  A    between atoms: _232  and  _235
REMARK   95  A    between atoms: _235  and  _236
REMARK   96  A    between atoms: _236  and  _237
REMARK   97  A    between atoms: _237  and  _238
REMARK   98  A    between atoms: _247  and  _249
REMARK   99  A    between atoms: _249  and  _250
REMARK  100  A    between atoms: _249  and  _252
REMARK  101  A    between atoms: _252  and  _253
REMARK  102  A    between atoms: _255  and  _257
REMARK  103  A    between atoms: _257  and  _258
REMARK  104  A    between atoms: _257  and  _260
REMARK  105  A    between atoms: _260  and  _261
REMARK  106  A    between atoms: _266  and  _267
REMARK  107  A    between atoms: _269  and  _271
REMARK  108  A    between atoms: _271  and  _272
REMARK  109  A    between atoms: _271  and  _274
REMARK  110  A    between atoms: _274  and  _275
REMARK  111  A    between atoms: _280  and  _282
REMARK  112  A    between atoms: _282  and  _283
REMARK  113  A    between atoms: _282  and  _285
REMARK  114  A    between atoms: _288  and  _290
REMARK  115  A    between atoms: _290  and  _291
REMARK  116  A    between atoms: _290  and  _293
REMARK  117  A    between atoms: _293  and  _294
REMARK  118  A    between atoms: _294  and  _295
REMARK  119  A    between atoms: _295  and  _296
REMARK  120  A    between atoms: _305  and  _307
REMARK  121  A    between atoms: _307  and  _308
REMARK  122  A    between atoms: _307  and  _310
REMARK  123  A    between atoms: _310  and  _311
REMARK  124  A    between atoms: _316  and  _318
REMARK  125  A    between atoms: _318  and  _319
REMARK  126  A    between atoms: _318  and  _321
REMARK  127  A    between atoms: _321  and  _322
REMARK  128  A    between atoms: _325  and  _327
REMARK  129  A    between atoms: _327  and  _328
REMARK  130  A    between atoms: _330  and  _332
REMARK  131  A    between atoms: _332  and  _333
REMARK  132  A    between atoms: _332  and  _335
REMARK  133  A    between atoms: _335  and  _336
REMARK  134  A    between atoms: _346  and  _348
REMARK  135  A    between atoms: _348  and  _349
REMARK  136  A    between atoms: _348  and  _351
REMARK  137  A    between atoms: _351  and  _352
REMARK  138  A    between atoms: _353  and  _355
REMARK  139  A    between atoms: _355  and  _356
REMARK  140  A    between atoms: _355  and  _358
REMARK  141  A    between atoms: _358  and  _359
REMARK  142  A    between atoms: _362  and  _364
REMARK  143  A    between atoms: _364  and  _365
REMARK  144  A    between atoms: _367  and  _369
REMARK  145  A    between atoms: _369  and  _370
REMARK  146  A    between atoms: _369  and  _372
REMARK  147  A    between atoms: _372  and  _373
REMARK  148  A    between atoms: _378  and  _379
REMARK  149  A    between atoms: _381  and  _383
REMARK  150  A    between atoms: _383  and  _384
REMARK  151  A    between atoms: _383  and  _386
REMARK  152  A    between atoms: _386  and  _387
REMARK  153  A    between atoms: _387  and  _388
REMARK  154  A    between atoms: _388  and  _389
REMARK  155  A    between atoms: _398  and  _400
REMARK  156  A    between atoms: _400  and  _401
REMARK  157  A    between atoms: _400  and  _403
REMARK  158  A    between atoms: _403  and  _404
REMARK  159  A    between atoms: _407  and  _409
REMARK  160  A    between atoms: _409  and  _410
REMARK  161  A    between atoms: _409  and  _412
REMARK  162  A    between atoms: _412  and  _413
REMARK  163  A    between atoms: _413  and  _414
REMARK  164  A    between atoms: _414  and  _415
REMARK  165  A    between atoms: _415  and  _416
REMARK  166  A    between atoms: _420  and  _422
REMARK  167  A    between atoms: _422  and  _423
REMARK  168  A    between atoms: _425  and  _427
REMARK  169  A    between atoms: _427  and  _428
REMARK  170  A    between atoms: _431  and  _433
REMARK  171  A    between atoms: _433  and  _434
REMARK  172  A    between atoms: _433  and  _436
REMARK  173  A    between atoms: _436  and  _437
REMARK  174  A    between atoms: _442  and  _444
REMARK  175  A    between atoms: _444  and  _445
REMARK  176  A    between atoms: _448  and  _450
REMARK  177  A    between atoms: _450  and  _451
REMARK  178  A    between atoms: _454  and  _455
REMARK  179  A    between atoms: _460  and  _462
REMARK  180  A    between atoms: _462  and  _463
REMARK  181  A    between atoms: _462  and  _465
REMARK  182  A    between atoms: _465  and  _466
REMARK  183  A    between atoms: _469  and  _471
REMARK  184  A    between atoms: _471  and  _472
REMARK  185  A    between atoms: _471  and  _474
REMARK  186  A    between atoms: _474  and  _475
REMARK  187  A    between atoms: _485  and  _487
REMARK  188  A    between atoms: _487  and  _488
REMARK  189  A    between atoms: _487  and  _490
REMARK  190  A    between atoms: _490  and  _491
REMARK  191  A    between atoms: _497  and  _498
REMARK  192  A    between atoms: _503  and  _505
REMARK  193  A    between atoms: _505  and  _506
REMARK  194  A    between atoms: _505  and  _508
REMARK  195  A    between atoms: _508  and  _509
REMARK  196  A    between atoms: _514  and  _516
REMARK  197  A    between atoms: _516  and  _517
REMARK  198  A    between atoms: _516  and  _519
REMARK  199  A    between atoms: _522  and  _524
REMARK  200  A    between atoms: _524  and  _525
REMARK  201  A    between atoms: _524  and  _527
REMARK  202  A    between atoms: _527  and  _528
REMARK  203  A    between atoms: _528  and  _529
REMARK  204  A    between atoms: _535  and  _536
REMARK  205  A    between atoms: _541  and  _543
REMARK  206  A    between atoms: _543  and  _544
REMARK  207  A    between atoms: _543  and  _546
REMARK  208  A    between atoms: _546  and  _547
REMARK  209  A    between atoms: _550  and  _552
REMARK  210  A    between atoms: _552  and  _553
REMARK  211  A    between atoms: _552  and  _555
REMARK  212  A    between atoms: _555  and  _556
REMARK  213  A    between atoms: _558  and  _560
REMARK  214  A    between atoms: _560  and  _561
REMARK  215  A    between atoms: _560  and  _563
REMARK  216  A    between atoms: _563  and  _564
REMARK  217  A    between atoms: _569  and  _570
REMARK  218  A    between atoms: _572  and  _574
REMARK  219  A    between atoms: _574  and  _575
REMARK  220  A    between atoms: _574  and  _577
REMARK  221  A    between atoms: _577  and  _578
REMARK  222  A    between atoms: _588  and  _590
REMARK  223  A    between atoms: _590  and  _591
REMARK  224  A    between atoms: _593  and  _595
REMARK  225  A    between atoms: _595  and  _596
REMARK  226  A    between atoms: _599  and  _601
REMARK  227  A    between atoms: _601  and  _602
REMARK  228  A    between atoms: _601  and  _604
REMARK  229  A    between atoms: _604  and  _605
REMARK  230  A    between atoms: _610  and  _612
REMARK  231  A    between atoms: _612  and  _613
REMARK  232  A    between atoms: _616  and  _618
REMARK  233  A    between atoms: _618  and  _619
REMARK  234  A    between atoms: _622  and  _623
REMARK  235  A    between atoms: _628  and  _630
REMARK  236  A    between atoms: _630  and  _631
REMARK  237  A    between atoms: _630  and  _633
REMARK  238  A    between atoms: _633  and  _634
REMARK  239  A    between atoms: _637  and  _639
REMARK  240  A    between atoms: _639  and  _640
REMARK  241  A    between atoms: _639  and  _642
REMARK  242  A    between atoms: _642  and  _643
REMARK  243  A    between atoms: _653  and  _655
REMARK  244  A    between atoms: _655  and  _656
REMARK  245  A    between atoms: _655  and  _658
REMARK  246  A    between atoms: _658  and  _659
REMARK  247  A    between atoms: _664  and  _666
REMARK  248  A    between atoms: _666  and  _667
REMARK  249  A    between atoms: _666  and  _669
REMARK  250  A    between atoms: _669  and  _670
REMARK  251  A    between atoms: _673  and  _675
REMARK  252  A    between atoms: _675  and  _676
REMARK  253  A    between atoms: _675  and  _678
REMARK  254  A    between atoms: _678  and  _679
REMARK  255  A    between atoms: _679  and  _680
REMARK  256  A    between atoms: _683  and  _685
REMARK  257  A    between atoms: _685  and  _686
REMARK  258  A    between atoms: _685  and  _688
REMARK  259  A    between atoms: _688  and  _689
REMARK  260  A    between atoms: _689  and  _690
REMARK  261  A    between atoms: _690  and  _691
REMARK  262  A    between atoms: _691  and  _692
REMARK  263  A    between atoms: _696  and  _698
REMARK  264  A    between atoms: _698  and  _699
REMARK  265  A    between atoms: _698  and  _701
REMARK  266  A    between atoms: _701  and  _702
REMARK  267  A    between atoms: _707  and  _709
REMARK  268  A    between atoms: _709  and  _710
REMARK  269  A    between atoms: _709  and  _712
REMARK  270  A    between atoms: _712  and  _713
REMARK  271  A    between atoms: _713  and  _714
REMARK  272  A    between atoms: _714  and  _715
REMARK  273  A    between atoms: _724  and  _726
REMARK  274  A    between atoms: _726  and  _727
REMARK  275  A    between atoms: _726  and  _729
REMARK  276  A    between atoms: _729  and  _730
REMARK  277  A    between atoms: _733  and  _735
REMARK  278  A    between atoms: _735  and  _736
REMARK  279  A    between atoms: _735  and  _738
REMARK  280  A    between atoms: _741  and  _743
REMARK  281  A    between atoms: _743  and  _744
REMARK  282  A    between atoms: _743  and  _746
REMARK  283  A    between atoms: _746  and  _747
REMARK  284  A    between atoms: _747  and  _748
REMARK  285  A    between atoms: _754  and  _755
REMARK  286  A    between atoms: _760  and  _762
REMARK  287  A    between atoms: _762  and  _763
REMARK  288  A    between atoms: _762  and  _765
REMARK  289  A    between atoms: _765  and  _766
REMARK  290  A    between atoms: _769  and  _771
REMARK  291  A    between atoms: _771  and  _772
REMARK  292  A    between atoms: _771  and  _774
REMARK  293  A    between atoms: _774  and  _775
REMARK  294  A    between atoms: _775  and  _776
REMARK  295  A    between atoms: _776  and  _777
REMARK  296  A    between atoms: _786  and  _788
REMARK  297  A    between atoms: _788  and  _789
REMARK                            x       y       z     vdW  Elec       q    Type
REMARK                         _______ _______ _______ _____ _____    ______ ____
ROOT
ATOM      1  O   HOH     1      20.182  29.559 -22.903  0.00  0.00    +0.000 OA
ENDROOT
TORSDOF 0
REMARK  Name = ../refined-set-2016/3o4k/3o4k_pocket.pdb
REMARK  297 active torsions:
REMARK  status: ('A' for Active; 'I' for Inactive)
REMARK    1  A    between atoms: _1  and  _3
REMARK    2  A    between atoms: _3  and  _4
REMARK    3  A    between atoms: _3  and  _6
REMARK    4  A    between atoms: _6  and  _7
REMARK    5  A    between atoms: _7  and  _8
REMARK    6  A    between atoms: _8  and  _9
REMARK    7  A    between atoms: _18  and  _20
REMARK    8  A    between atoms: _20  and  _21
REMARK    9  A    between atoms: _20  and  _23
REMARK   10  A    between atoms: _23  and  _24
REMARK   11  A    between atoms: _29  and  _30
REMARK   12  A    between atoms: _32  and  _34
REMARK   13  A    between atoms: _34  and  _35
REMARK   14  A    between atoms: _34  and  _37
REMARK   15  A    between atoms: _37  and  _38
REMARK   16  A    between atoms: _48  and  _50
REMARK   17  A    between atoms: _50  and  _51
REMARK   18  A    between atoms: _50  and  _53
REMARK   19  A    between atoms: _53  and  _54
REMARK   20  A    between atoms: _54  and  _55
REMARK   21  A    between atoms: _55  and  _56
REMARK   22  A    between atoms: _65  and  _67
REMARK   23  A    between atoms: _67  and  _68
REMARK   24  A    between atoms: _67  and  _70
REMARK   25  A    between atoms: _70  and  _71
REMARK   26  A    between atoms: _73  and  _75
REMARK   27  A    between atoms: _75  and  _76
REMARK   28  A    between atoms: _75  and  _78
REMARK   29  A    between atoms: _78  and  _79
REMARK   30  A    between atoms: _84  and  _86
REMARK   31  A    between atoms: _86  and  _87
REMARK   32  A    between atoms: _86  and  _89
REMARK   33  A    between atoms: _89  and  _90
REMARK   34  A    between atoms: _95  and  _96
REMARK   35  A    between atoms: _98  and  _100
REMARK   36  A    between atoms: _100  and  _101
REMARK   37  A    between atoms: _100  and  _103
REMARK   38  A    between atoms: _103  and  _104
REMARK   39  A    between atoms: _104  and  _105
REMARK   40  A    between atoms: _108  and  _110
REMARK   41  A    between atoms: _110  and  _111
REMARK   42  A    between atoms: _110  and  _113
REMARK   43  A    between atoms: _116  and  _118
REMARK   44  A    between atoms: _118  and  _119
REMARK   45  A    between atoms: _118  and  _121
REMARK   46  A    between atoms: _121  and  _122
REMARK   47  A    between atoms: _122  and  _123
REMARK   48  A    between atoms: _123  and  _124
REMARK   49  A    between atoms: _124  and  _125
REMARK   50  A    between atoms: _129  and  _131
REMARK   51  A    between atoms: _131  and  _132
REMARK   52  A    between atoms: _131  and  _134
REMARK   53  A    between atoms: _134  and  _135
REMARK   54  A    between atoms: _140  and  _142
REMARK   55  A    between atoms: _142  and  _143
REMARK   56  A    between atoms: _142  and  _145
REMARK   57  A    between atoms: _145  and  _146
REMARK   58  A    between atoms: _151  and  _152
REMARK   59  A    between atoms: _154  and  _156
REMARK   60  A    between atoms: _156  and  _157
REMARK   61  A    between atoms: _156  and  _159
REMARK   62  A    between atoms: _159  and  _160
REMARK   63  A    between atoms: _160  and  _161
REMARK   64  A    between atoms: _161  and  _162
REMARK   65  A    between atoms: _171  and  _173
REMARK   66  A    between atoms: _173  and  _174
REMARK   67  A    between atoms: _178  and  _180
REMARK   68  A    between atoms: _180  and  _181
REMARK   69  A    between atoms: _180  and  _183
REMARK   70  A    between atoms: _183  and  _184
REMARK   71  A    between atoms: _186  and  _188
REMARK   72  A    between atoms: _188  and  _189
REMARK   73  A    between atoms: _188  and  _191
REMARK   74  A    between atoms: _191  and  _192
REMARK   75  A    between atoms: _192  and  _193
REMARK   76  A    between atoms: _196  and  _198
REMARK   77  A    between atoms: _198  and  _199
REMARK   78  A    between atoms: _198  and  _201
REMARK   79  A    between atoms: _201  and  _202
REMARK   80  A    between atoms: _202  and  _352
REMARK   81  A    between atoms: _203  and  _205
REMARK   82  A    between atoms: _205  and  _206
REMARK   83  A    between atoms: _205  and  _208
REMARK   84  A    between atoms: _208  and  _209
REMARK   85  A    between atoms: _209  and  _210
REMARK   86  A    between atoms: _210  and  _211
REMARK   87  A    between atoms: _220  and  _222
REMARK   88  A    between atoms: _222  and  _223
REMARK   89  A    between atoms: _222  and  _225
REMARK   90  A    between atoms: _225  and  _226
REMARK   91  A    between atoms: _226  and  _227
REMARK   92  A    between atoms: _230  and  _232
REMARK   93  A    between atoms: _232  and  _233
REMARK   94  A    between atoms: _232  and  _235
REMARK   95  A    between atoms: _235  and  _236
REMARK   96  A    between atoms: _236  and  _237
REMARK   97  A    between atoms: _237  and  _238
REMARK   98  A    between atoms: _247  and  _249
REMARK   99  A    between atoms: _249  and  _250
REMARK  100  A    between atoms: _249  and  _252
REMARK  101  A    between atoms: _252  and  _253
REMARK  102  A    between atoms: _255  and  _257
REMARK  103  A    between atoms: _257  and  _258
REMARK  104  A    between atoms: _257  and  _260
REMARK  105  A    between atoms: _260  and  _261
REMARK  106  A    between atoms: _266  and  _267
REMARK  107  A    between atoms: _269  and  _271
REMARK  108  A    between atoms: _271  and  _272
REMARK  109  A    between atoms: _271  and  _274
REMARK  110  A    between atoms: _274  and  _275
REMARK  111  A    between atoms: _280  and  _282
REMARK  112  A    between atoms: _282  and  _283
REMARK  113  A    between atoms: _282  and  _285
REMARK  114  A    between atoms: _288  and  _290
REMARK  115  A    between atoms: _290  and  _291
REMARK  116  A    between atoms: _290  and  _293
REMARK  117  A    between atoms: _293  and  _294
REMARK  118  A    between atoms: _294  and  _295
REMARK  119  A    between atoms: _295  and  _296
REMARK  120  A    between atoms: _305  and  _307
REMARK  121  A    between atoms: _307  and  _308
REMARK  122  A    between atoms: _307  and  _310
REMARK  123  A    between atoms: _310  and  _311
REMARK  124  A    between atoms: _316  and  _318
REMARK  125  A    between atoms: _318  and  _319
REMARK  126  A    between atoms: _318  and  _321
REMARK  127  A    between atoms: _321  and  _322
REMARK  128  A    between atoms: _325  and  _327
REMARK  129  A    between atoms: _327  and  _328
REMARK  130  A    between atoms: _330  and  _332
REMARK  131  A    between atoms: _332  and  _333
REMARK  132  A    between atoms: _332  and  _335
REMARK  133  A    between atoms: _335  and  _336
REMARK  134  A    between atoms: _346  and  _348
REMARK  135  A    between atoms: _348  and  _349
REMARK  136  A    between atoms: _348  and  _351
REMARK  137  A    between atoms: _351  and  _352
REMARK  138  A    between atoms: _353  and  _355
REMARK  139  A    between atoms: _355  and  _356
REMARK  140  A    between atoms: _355  and  _358
REMARK  141  A    between atoms: _358  and  _359
REMARK  142  A    between atoms: _362  and  _364
REMARK  143  A    between atoms: _364  and  _365
REMARK  144  A    between atoms: _367  and  _369
REMARK  145  A    between atoms: _369  and  _370
REMARK  146  A    between atoms: _369  and  _372
REMARK  147  A    between atoms: _372  and  _373
REMARK  148  A    between atoms: _378  and  _379
REMARK  149  A    between atoms: _381  and  _383
REMARK  150  A    between atoms: _383  and  _384
REMARK  151  A    between atoms: _383  and  _386
REMARK  152  A    between atoms: _386  and  _387
REMARK  153  A    between atoms: _387  and  _388
REMARK  154  A    between atoms: _388  and  _389
REMARK  155  A    between atoms: _398  and  _400
REMARK  156  A    between atoms: _400  and  _401
REMARK  157  A    between atoms: _400  and  _403
REMARK  158  A    between atoms: _403  and  _404
REMARK  159  A    between atoms: _407  and  _409
REMARK  160  A    between atoms: _409  and  _410
REMARK  161  A    between atoms: _409  and  _412
REMARK  162  A    between atoms: _412  and  _413
REMARK  163  A    between atoms: _413  and  _414
REMARK  164  A    between atoms: _414  and  _415
REMARK  165  A    between atoms: _415  and  _416
REMARK  166  A    between atoms: _420  and  _422
REMARK  167  A    between atoms: _422  and  _423
REMARK  168  A    between atoms: _425  and  _427
REMARK  169  A    between atoms: _427  and  _428
REMARK  170  A    between atoms: _431  and  _433
REMARK  171  A    between atoms: _433  and  _434
REMARK  172  A    between atoms: _433  and  _436
REMARK  173  A    between atoms: _436  and  _437
REMARK  174  A    between atoms: _442  and  _444
REMARK  175  A    between atoms: _444  and  _445
REMARK  176  A    between atoms: _448  and  _450
REMARK  177  A    between atoms: _450  and  _451
REMARK  178  A    between atoms: _454  and  _455
REMARK  179  A    between atoms: _460  and  _462
REMARK  180  A    between atoms: _462  and  _463
REMARK  181  A    between atoms: _462  and  _465
REMARK  182  A    between atoms: _465  and  _466
REMARK  183  A    between atoms: _469  and  _471
REMARK  184  A    between atoms: _471  and  _472
REMARK  185  A    between atoms: _471  and  _474
REMARK  186  A    between atoms: _474  and  _475
REMARK  187  A    between atoms: _485  and  _487
REMARK  188  A    between atoms: _487  and  _488
REMARK  189  A    between atoms: _487  and  _490
REMARK  190  A    between atoms: _490  and  _491
REMARK  191  A    between atoms: _497  and  _498
REMARK  192  A    between atoms: _503  and  _505
REMARK  193  A    between atoms: _505  and  _506
REMARK  194  A    between atoms: _505  and  _508
REMARK  195  A    between atoms: _508  and  _509
REMARK  196  A    between atoms: _514  and  _516
REMARK  197  A    between atoms: _516  and  _517
REMARK  198  A    between atoms: _516  and  _519
REMARK  199  A    between atoms: _522  and  _524
REMARK  200  A    between atoms: _524  and  _525
REMARK  201  A    between atoms: _524  and  _527
REMARK  202  A    between atoms: _527  and  _528
REMARK  203  A    between atoms: _528  and  _529
REMARK  204  A    between atoms: _535  and  _536
REMARK  205  A    between atoms: _541  and  _543
REMARK  206  A    between atoms: _543  and  _544
REMARK  207  A    between atoms: _543  and  _546
REMARK  208  A    between atoms: _546  and  _547
REMARK  209  A    between atoms: _550  and  _552
REMARK  210  A    between atoms: _552  and  _553
REMARK  211  A    between atoms: _552  and  _555
REMARK  212  A    between atoms: _555  and  _556
REMARK  213  A    between atoms: _558  and  _560
REMARK  214  A    between atoms: _560  and  _561
REMARK  215  A    between atoms: _560  and  _563
REMARK  216  A    between atoms: _563  and  _564
REMARK  217  A    between atoms: _569  and  _570
REMARK  218  A    between atoms: _572  and  _574
REMARK  219  A    between atoms: _574  and  _575
REMARK  220  A    between atoms: _574  and  _577
REMARK  221  A    between atoms: _577  and  _578
REMARK  222  A    between atoms: _588  and  _590
REMARK  223  A    between atoms: _590  and  _591
REMARK  224  A    between atoms: _593  and  _595
REMARK  225  A    between atoms: _595  and  _596
REMARK  226  A    between atoms: _599  and  _601
REMARK  227  A    between atoms: _601  and  _602
REMARK  228  A    between atoms: _601  and  _604
REMARK  229  A    between atoms: _604  and  _605
REMARK  230  A    between atoms: _610  and  _612
REMARK  231  A    between atoms: _612  and  _613
REMARK  232  A    between atoms: _616  and  _618
REMARK  233  A    between atoms: _618  and  _619
REMARK  234  A    between atoms: _622  and  _623
REMARK  235  A    between atoms: _628  and  _630
REMARK  236  A    between atoms: _630  and  _631
REMARK  237  A    between atoms: _630  and  _633
REMARK  238  A    between atoms: _633  and  _634
REMARK  239  A    between atoms: _637  and  _639
REMARK  240  A    between atoms: _639  and  _640
REMARK  241  A    between atoms: _639  and  _642
REMARK  242  A    between atoms: _642  and  _643
REMARK  243  A    between atoms: _653  and  _655
REMARK  244  A    between atoms: _655  and  _656
REMARK  245  A    between atoms: _655  and  _658
REMARK  246  A    between atoms: _658  and  _659
REMARK  247  A    between atoms: _664  and  _666
REMARK  248  A    between atoms: _666  and  _667
REMARK  249  A    between atoms: _666  and  _669
REMARK  250  A    between atoms: _669  and  _670
REMARK  251  A    between atoms: _673  and  _675
REMARK  252  A    between atoms: _675  and  _676
REMARK  253  A    between atoms: _675  and  _678
REMARK  254  A    between atoms: _678  and  _679
REMARK  255  A    between atoms: _679  and  _680
REMARK  256  A    between atoms: _683  and  _685
REMARK  257  A    between atoms: _685  and  _686
REMARK  258  A    between atoms: _685  and  _688
REMARK  259  A    between atoms: _688  and  _689
REMARK  260  A    between atoms: _689  and  _690
REMARK  261  A    between atoms: _690  and  _691
REMARK  262  A    between atoms: _691  and  _692
REMARK  263  A    between atoms: _696  and  _698
REMARK  264  A    between atoms: _698  and  _699
REMARK  265  A    between atoms: _698  and  _701
REMARK  266  A    between atoms: _701  and  _702
REMARK  267  A    between atoms: _707  and  _709
REMARK  268  A    between atoms: _709  and  _710
REMARK  269  A    between atoms: _709  and  _712
REMARK  270  A    between atoms: _712  and  _713
REMARK  271  A    between atoms: _713  and  _714
REMARK  272  A    between atoms: _714  and  _715
REMARK  273  A    between atoms: _724  and  _726
REMARK  274  A    between atoms: _726  and  _727
REMARK  275  A    between atoms: _726  and  _729
REMARK  276  A    between atoms: _729  and  _730
REMARK  277  A    between atoms: _733  and  _735
REMARK  278  A    between atoms: _735  and  _736
REMARK  279  A    between atoms: _735  and  _738
REMARK  280  A    between atoms: _741  and  _743
REMARK  281  A    between atoms: _743  and  _744
REMARK  282  A    between atoms: _743  and  _746
REMARK  283  A    between atoms: _746  and  _747
REMARK  284  A    between atoms: _747  and  _748
REMARK  285  A    between atoms: _754  and  _755
REMARK  286  A    between atoms: _760  and  _762
REMARK  287  A    between atoms: _762  and  _763
REMARK  288  A    between atoms: _762  and  _765
REMARK  289  A    between atoms: _765  and  _766
REMARK  290  A    between atoms: _769  and  _771
REMARK  291  A    between atoms: _771  and  _772
REMARK  292  A    between atoms: _771  and  _774
REMARK  293  A    between atoms: _774  and  _775
REMARK  294  A    between atoms: _775  and  _776
REMARK  295  A    between atoms: _776  and  _777
REMARK  296  A    between atoms: _786  and  _788
REMARK  297  A    between atoms: _788  and  _789
REMARK                            x       y       z     vdW  Elec       q    Type
REMARK                         _______ _______ _______ _____ _____    ______ ____
ROOT
ATOM      1  O   HOH     1      -0.009  23.544 -31.184  0.00  0.00    +0.000 OA
ENDROOT
TORSDOF 0
REMARK  Name = ../refined-set-2016/3o4k/3o4k_pocket.pdb
REMARK  297 active torsions:
REMARK  status: ('A' for Active; 'I' for Inactive)
REMARK    1  A    between atoms: _1  and  _3
REMARK    2  A    between atoms: _3  and  _4
REMARK    3  A    between atoms: _3  and  _6
REMARK    4  A    between atoms: _6  and  _7
REMARK    5  A    between atoms: _7  and  _8
REMARK    6  A    between atoms: _8  and  _9
REMARK    7  A    between atoms: _18  and  _20
REMARK    8  A    between atoms: _20  and  _21
REMARK    9  A    between atoms: _20  and  _23
REMARK   10  A    between atoms: _23  and  _24
REMARK   11  A    between atoms: _29  and  _30
REMARK   12  A    between atoms: _32  and  _34
REMARK   13  A    between atoms: _34  and  _35
REMARK   14  A    between atoms: _34  and  _37
REMARK   15  A    between atoms: _37  and  _38
REMARK   16  A    between atoms: _48  and  _50
REMARK   17  A    between atoms: _50  and  _51
REMARK   18  A    between atoms: _50  and  _53
REMARK   19  A    between atoms: _53  and  _54
REMARK   20  A    between atoms: _54  and  _55
REMARK   21  A    between atoms: _55  and  _56
REMARK   22  A    between atoms: _65  and  _67
REMARK   23  A    between atoms: _67  and  _68
REMARK   24  A    between atoms: _67  and  _70
REMARK   25  A    between atoms: _70  and  _71
REMARK   26  A    between atoms: _73  and  _75
REMARK   27  A    between atoms: _75  and  _76
REMARK   28  A    between atoms: _75  and  _78
REMARK   29  A    between atoms: _78  and  _79
REMARK   30  A    between atoms: _84  and  _86
REMARK   31  A    between atoms: _86  and  _87
REMARK   32  A    between atoms: _86  and  _89
REMARK   33  A    between atoms: _89  and  _90
REMARK   34  A    between atoms: _95  and  _96
REMARK   35  A    between atoms: _98  and  _100
REMARK   36  A    between atoms: _100  and  _101
REMARK   37  A    between atoms: _100  and  _103
REMARK   38  A    between atoms: _103  and  _104
REMARK   39  A    between atoms: _104  and  _105
REMARK   40  A    between atoms: _108  and  _110
REMARK   41  A    between atoms: _110  and  _111
REMARK   42  A    between atoms: _110  and  _113
REMARK   43  A    between atoms: _116  and  _118
REMARK   44  A    between atoms: _118  and  _119
REMARK   45  A    between atoms: _118  and  _121
REMARK   46  A    between atoms: _121  and  _122
REMARK   47  A    between atoms: _122  and  _123
REMARK   48  A    between atoms: _123  and  _124
REMARK   49  A    between atoms: _124  and  _125
REMARK   50  A    between atoms: _129  and  _131
REMARK   51  A    between atoms: _131  and  _132
REMARK   52  A    between atoms: _131  and  _134
REMARK   53  A    between atoms: _134  and  _135
REMARK   54  A    between atoms: _140  and  _142
REMARK   55  A    between atoms: _142  and  _143
REMARK   56  A    between atoms: _142  and  _145
REMARK   57  A    between atoms: _145  and  _146
REMARK   58  A    between atoms: _151  and  _152
REMARK   59  A    between atoms: _154  and  _156
REMARK   60  A    between atoms: _156  and  _157
REMARK   61  A    between atoms: _156  and  _159
REMARK   62  A    between atoms: _159  and  _160
REMARK   63  A    between atoms: _160  and  _161
REMARK   64  A    between atoms: _161  and  _162
REMARK   65  A    between atoms: _171  and  _173
REMARK   66  A    between atoms: _173  and  _174
REMARK   67  A    between atoms: _178  and  _180
REMARK   68  A    between atoms: _180  and  _181
REMARK   69  A    between atoms: _180  and  _183
REMARK   70  A    between atoms: _183  and  _184
REMARK   71  A    between atoms: _186  and  _188
REMARK   72  A    between atoms: _188  and  _189
REMARK   73  A    between atoms: _188  and  _191
REMARK   74  A    between atoms: _191  and  _192
REMARK   75  A    between atoms: _192  and  _193
REMARK   76  A    between atoms: _196  and  _198
REMARK   77  A    between atoms: _198  and  _199
REMARK   78  A    between atoms: _198  and  _201
REMARK   79  A    between atoms: _201  and  _202
REMARK   80  A    between atoms: _202  and  _352
REMARK   81  A    between atoms: _203  and  _205
REMARK   82  A    between atoms: _205  and  _206
REMARK   83  A    between atoms: _205  and  _208
REMARK   84  A    between atoms: _208  and  _209
REMARK   85  A    between atoms: _209  and  _210
REMARK   86  A    between atoms: _210  and  _211
REMARK   87  A    between atoms: _220  and  _222
REMARK   88  A    between atoms: _222  and  _223
REMARK   89  A    between atoms: _222  and  _225
REMARK   90  A    between atoms: _225  and  _226
REMARK   91  A    between atoms: _226  and  _227
REMARK   92  A    between atoms: _230  and  _232
REMARK   93  A    between atoms: _232  and  _233
REMARK   94  A    between atoms: _232  and  _235
REMARK   95  A    between atoms: _235  and  _236
REMARK   96  A    between atoms: _236  and  _237
REMARK   97  A    between atoms: _237  and  _238
REMARK   98  A    between atoms: _247  and  _249
REMARK   99  A    between atoms: _249  and  _250
REMARK  100  A    between atoms: _249  and  _252
REMARK  101  A    between atoms: _252  and  _253
REMARK  102  A    between atoms: _255  and  _257
REMARK  103  A    between atoms: _257  and  _258
REMARK  104  A    between atoms: _257  and  _260
REMARK  105  A    between atoms: _260  and  _261
REMARK  106  A    between atoms: _266  and  _267
REMARK  107  A    between atoms: _269  and  _271
REMARK  108  A    between atoms: _271  and  _272
REMARK  109  A    between atoms: _271  and  _274
REMARK  110  A    between atoms: _274  and  _275
REMARK  111  A    between atoms: _280  and  _282
REMARK  112  A    between atoms: _282  and  _283
REMARK  113  A    between atoms: _282  and  _285
REMARK  114  A    between atoms: _288  and  _290
REMARK  115  A    between atoms: _290  and  _291
REMARK  116  A    between atoms: _290  and  _293
REMARK  117  A    between atoms: _293  and  _294
REMARK  118  A    between atoms: _294  and  _295
REMARK  119  A    between atoms: _295  and  _296
REMARK  120  A    between atoms: _305  and  _307
REMARK  121  A    between atoms: _307  and  _308
REMARK  122  A    between atoms: _307  and  _310
REMARK  123  A    between atoms: _310  and  _311
REMARK  124  A    between atoms: _316  and  _318
REMARK  125  A    between atoms: _318  and  _319
REMARK  126  A    between atoms: _318  and  _321
REMARK  127  A    between atoms: _321  and  _322
REMARK  128  A    between atoms: _325  and  _327
REMARK  129  A    between atoms: _327  and  _328
REMARK  130  A    between atoms: _330  and  _332
REMARK  131  A    between atoms: _332  and  _333
REMARK  132  A    between atoms: _332  and  _335
REMARK  133  A    between atoms: _335  and  _336
REMARK  134  A    between atoms: _346  and  _348
REMARK  135  A    between atoms: _348  and  _349
REMARK  136  A    between atoms: _348  and  _351
REMARK  137  A    between atoms: _351  and  _352
REMARK  138  A    between atoms: _353  and  _355
REMARK  139  A    between atoms: _355  and  _356
REMARK  140  A    between atoms: _355  and  _358
REMARK  141  A    between atoms: _358  and  _359
REMARK  142  A    between atoms: _362  and  _364
REMARK  143  A    between atoms: _364  and  _365
REMARK  144  A    between atoms: _367  and  _369
REMARK  145  A    between atoms: _369  and  _370
REMARK  146  A    between atoms: _369  and  _372
REMARK  147  A    between atoms: _372  and  _373
REMARK  148  A    between atoms: _378  and  _379
REMARK  149  A    between atoms: _381  and  _383
REMARK  150  A    between atoms: _383  and  _384
REMARK  151  A    between atoms: _383  and  _386
REMARK  152  A    between atoms: _386  and  _387
REMARK  153  A    between atoms: _387  and  _388
REMARK  154  A    between atoms: _388  and  _389
REMARK  155  A    between atoms: _398  and  _400
REMARK  156  A    between atoms: _400  and  _401
REMARK  157  A    between atoms: _400  and  _403
REMARK  158  A    between atoms: _403  and  _404
REMARK  159  A    between atoms: _407  and  _409
REMARK  160  A    between atoms: _409  and  _410
REMARK  161  A    between atoms: _409  and  _412
REMARK  162  A    between atoms: _412  and  _413
REMARK  163  A    between atoms: _413  and  _414
REMARK  164  A    between atoms: _414  and  _415
REMARK  165  A    between atoms: _415  and  _416
REMARK  166  A    between atoms: _420  and  _422
REMARK  167  A    between atoms: _422  and  _423
REMARK  168  A    between atoms: _425  and  _427
REMARK  169  A    between atoms: _427  and  _428
REMARK  170  A    between atoms: _431  and  _433
REMARK  171  A    between atoms: _433  and  _434
REMARK  172  A    between atoms: _433  and  _436
REMARK  173  A    between atoms: _436  and  _437
REMARK  174  A    between atoms: _442  and  _444
REMARK  175  A    between atoms: _444  and  _445
REMARK  176  A    between atoms: _448  and  _450
REMARK  177  A    between atoms: _450  and  _451
REMARK  178  A    between atoms: _454  and  _455
REMARK  179  A    between atoms: _460  and  _462
REMARK  180  A    between atoms: _462  and  _463
REMARK  181  A    between atoms: _462  and  _465
REMARK  182  A    between atoms: _465  and  _466
REMARK  183  A    between atoms: _469  and  _471
REMARK  184  A    between atoms: _471  and  _472
REMARK  185  A    between atoms: _471  and  _474
REMARK  186  A    between atoms: _474  and  _475
REMARK  187  A    between atoms: _485  and  _487
REMARK  188  A    between atoms: _487  and  _488
REMARK  189  A    between atoms: _487  and  _490
REMARK  190  A    between atoms: _490  and  _491
REMARK  191  A    between atoms: _497  and  _498
REMARK  192  A    between atoms: _503  and  _505
REMARK  193  A    between atoms: _505  and  _506
REMARK  194  A    between atoms: _505  and  _508
REMARK  195  A    between atoms: _508  and  _509
REMARK  196  A    between atoms: _514  and  _516
REMARK  197  A    between atoms: _516  and  _517
REMARK  198  A    between atoms: _516  and  _519
REMARK  199  A    between atoms: _522  and  _524
REMARK  200  A    between atoms: _524  and  _525
REMARK  201  A    between atoms: _524  and  _527
REMARK  202  A    between atoms: _527  and  _528
REMARK  203  A    between atoms: _528  and  _529
REMARK  204  A    between atoms: _535  and  _536
REMARK  205  A    between atoms: _541  and  _543
REMARK  206  A    between atoms: _543  and  _544
REMARK  207  A    between atoms: _543  and  _546
REMARK  208  A    between atoms: _546  and  _547
REMARK  209  A    between atoms: _550  and  _552
REMARK  210  A    between atoms: _552  and  _553
REMARK  211  A    between atoms: _552  and  _555
REMARK  212  A    between atoms: _555  and  _556
REMARK  213  A    between atoms: _558  and  _560
REMARK  214  A    between atoms: _560  and  _561
REMARK  215  A    between atoms: _560  and  _563
REMARK  216  A    between atoms: _563  and  _564
REMARK  217  A    between atoms: _569  and  _570
REMARK  218  A    between atoms: _572  and  _574
REMARK  219  A    between atoms: _574  and  _575
REMARK  220  A    between atoms: _574  and  _577
REMARK  221  A    between atoms: _577  and  _578
REMARK  222  A    between atoms: _588  and  _590
REMARK  223  A    between atoms: _590  and  _591
REMARK  224  A    between atoms: _593  and  _595
REMARK  225  A    between atoms: _595  and  _596
REMARK  226  A    between atoms: _599  and  _601
REMARK  227  A    between atoms: _601  and  _602
REMARK  228  A    between atoms: _601  and  _604
REMARK  229  A    between atoms: _604  and  _605
REMARK  230  A    between atoms: _610  and  _612
REMARK  231  A    between atoms: _612  and  _613
REMARK  232  A    between atoms: _616  and  _618
REMARK  233  A    between atoms: _618  and  _619
REMARK  234  A    between atoms: _622  and  _623
REMARK  235  A    between atoms: _628  and  _630
REMARK  236  A    between atoms: _630  and  _631
REMARK  237  A    between atoms: _630  and  _633
REMARK  238  A    between atoms: _633  and  _634
REMARK  239  A    between atoms: _637  and  _639
REMARK  240  A    between atoms: _639  and  _640
REMARK  241  A    between atoms: _639  and  _642
REMARK  242  A    between atoms: _642  and  _643
REMARK  243  A    between atoms: _653  and  _655
REMARK  244  A    between atoms: _655  and  _656
REMARK  245  A    between atoms: _655  and  _658
REMARK  246  A    between atoms: _658  and  _659
REMARK  247  A    between atoms: _664  and  _666
REMARK  248  A    between atoms: _666  and  _667
REMARK  249  A    between atoms: _666  and  _669
REMARK  250  A    between atoms: _669  and  _670
REMARK  251  A    between atoms: _673  and  _675
REMARK  252  A    between atoms: _675  and  _676
REMARK  253  A    between atoms: _675  and  _678
REMARK  254  A    between atoms: _678  and  _679
REMARK  255  A    between atoms: _679  and  _680
REMARK  256  A    between atoms: _683  and  _685
REMARK  257  A    between atoms: _685  and  _686
REMARK  258  A    between atoms: _685  and  _688
REMARK  259  A    between atoms: _688  and  _689
REMARK  260  A    between atoms: _689  and  _690
REMARK  261  A    between atoms: _690  and  _691
REMARK  262  A    between atoms: _691  and  _692
REMARK  263  A    between atoms: _696  and  _698
REMARK  264  A    between atoms: _698  and  _699
REMARK  265  A    between atoms: _698  and  _701
REMARK  266  A    between atoms: _701  and  _702
REMARK  267  A    between atoms: _707  and  _709
REMARK  268  A    between atoms: _709  and  _710
REMARK  269  A    between atoms: _709  and  _712
REMARK  270  A    between atoms: _712  and  _713
REMARK  271  A    between atoms: _713  and  _714
REMARK  272  A    between atoms: _714  and  _715
REMARK  273  A    between atoms: _724  and  _726
REMARK  274  A    between atoms: _726  and  _727
REMARK  275  A    between atoms: _726  and  _729
REMARK  276  A    between atoms: _729  and  _730
REMARK  277  A    between atoms: _733  and  _735
REMARK  278  A    between atoms: _735  and  _736
REMARK  279  A    between atoms: _735  and  _738
REMARK  280  A    between atoms: _741  and  _743
REMARK  281  A    between atoms: _743  and  _744
REMARK  282  A    between atoms: _743  and  _746
REMARK  283  A    between atoms: _746  and  _747
REMARK  284  A    between atoms: _747  and  _748
REMARK  285  A    between atoms: _754  and  _755
REMARK  286  A    between atoms: _760  and  _762
REMARK  287  A    between atoms: _762  and  _763
REMARK  288  A    between atoms: _762  and  _765
REMARK  289  A    between atoms: _765  and  _766
REMARK  290  A    between atoms: _769  and  _771
REMARK  291  A    between atoms: _771  and  _772
REMARK  292  A    between atoms: _771  and  _774
REMARK  293  A    between atoms: _774  and  _775
REMARK  294  A    between atoms: _775  and  _776
REMARK  295  A    between atoms: _776  and  _777
REMARK  296  A    between atoms: _786  and  _788
REMARK  297  A    between atoms: _788  and  _789
REMARK                            x       y       z     vdW  Elec       q    Type
REMARK                         _______ _______ _______ _____ _____    ______ ____
ROOT
ATOM      1  O   HOH     1      14.391  24.988 -23.199  0.00  0.00    +0.000 OA
ENDROOT
TORSDOF 0
REMARK  Name = ../refined-set-2016/3o4k/3o4k_pocket.pdb
REMARK  297 active torsions:
REMARK  status: ('A' for Active; 'I' for Inactive)
REMARK    1  A    between atoms: _1  and  _3
REMARK    2  A    between atoms: _3  and  _4
REMARK    3  A    between atoms: _3  and  _6
REMARK    4  A    between atoms: _6  and  _7
REMARK    5  A    between atoms: _7  and  _8
REMARK    6  A    between atoms: _8  and  _9
REMARK    7  A    between atoms: _18  and  _20
REMARK    8  A    between atoms: _20  and  _21
REMARK    9  A    between atoms: _20  and  _23
REMARK   10  A    between atoms: _23  and  _24
REMARK   11  A    between atoms: _29  and  _30
REMARK   12  A    between atoms: _32  and  _34
REMARK   13  A    between atoms: _34  and  _35
REMARK   14  A    between atoms: _34  and  _37
REMARK   15  A    between atoms: _37  and  _38
REMARK   16  A    between atoms: _48  and  _50
REMARK   17  A    between atoms: _50  and  _51
REMARK   18  A    between atoms: _50  and  _53
REMARK   19  A    between atoms: _53  and  _54
REMARK   20  A    between atoms: _54  and  _55
REMARK   21  A    between atoms: _55  and  _56
REMARK   22  A    between atoms: _65  and  _67
REMARK   23  A    between atoms: _67  and  _68
REMARK   24  A    between atoms: _67  and  _70
REMARK   25  A    between atoms: _70  and  _71
REMARK   26  A    between atoms: _73  and  _75
REMARK   27  A    between atoms: _75  and  _76
REMARK   28  A    between atoms: _75  and  _78
REMARK   29  A    between atoms: _78  and  _79
REMARK   30  A    between atoms: _84  and  _86
REMARK   31  A    between atoms: _86  and  _87
REMARK   32  A    between atoms: _86  and  _89
REMARK   33  A    between atoms: _89  and  _90
REMARK   34  A    between atoms: _95  and  _96
REMARK   35  A    between atoms: _98  and  _100
REMARK   36  A    between atoms: _100  and  _101
REMARK   37  A    between atoms: _100  and  _103
REMARK   38  A    between atoms: _103  and  _104
REMARK   39  A    between atoms: _104  and  _105
REMARK   40  A    between atoms: _108  and  _110
REMARK   41  A    between atoms: _110  and  _111
REMARK   42  A    between atoms: _110  and  _113
REMARK   43  A    between atoms: _116  and  _118
REMARK   44  A    between atoms: _118  and  _119
REMARK   45  A    between atoms: _118  and  _121
REMARK   46  A    between atoms: _121  and  _122
REMARK   47  A    between atoms: _122  and  _123
REMARK   48  A    between atoms: _123  and  _124
REMARK   49  A    between atoms: _124  and  _125
REMARK   50  A    between atoms: _129  and  _131
REMARK   51  A    between atoms: _131  and  _132
REMARK   52  A    between atoms: _131  and  _134
REMARK   53  A    between atoms: _134  and  _135
REMARK   54  A    between atoms: _140  and  _142
REMARK   55  A    between atoms: _142  and  _143
REMARK   56  A    between atoms: _142  and  _145
REMARK   57  A    between atoms: _145  and  _146
REMARK   58  A    between atoms: _151  and  _152
REMARK   59  A    between atoms: _154  and  _156
REMARK   60  A    between atoms: _156  and  _157
REMARK   61  A    between atoms: _156  and  _159
REMARK   62  A    between atoms: _159  and  _160
REMARK   63  A    between atoms: _160  and  _161
REMARK   64  A    between atoms: _161  and  _162
REMARK   65  A    between atoms: _171  and  _173
REMARK   66  A    between atoms: _173  and  _174
REMARK   67  A    between atoms: _178  and  _180
REMARK   68  A    between atoms: _180  and  _181
REMARK   69  A    between atoms: _180  and  _183
REMARK   70  A    between atoms: _183  and  _184
REMARK   71  A    between atoms: _186  and  _188
REMARK   72  A    between atoms: _188  and  _189
REMARK   73  A    between atoms: _188  and  _191
REMARK   74  A    between atoms: _191  and  _192
REMARK   75  A    between atoms: _192  and  _193
REMARK   76  A    between atoms: _196  and  _198
REMARK   77  A    between atoms: _198  and  _199
REMARK   78  A    between atoms: _198  and  _201
REMARK   79  A    between atoms: _201  and  _202
REMARK   80  A    between atoms: _202  and  _352
REMARK   81  A    between atoms: _203  and  _205
REMARK   82  A    between atoms: _205  and  _206
REMARK   83  A    between atoms: _205  and  _208
REMARK   84  A    between atoms: _208  and  _209
REMARK   85  A    between atoms: _209  and  _210
REMARK   86  A    between atoms: _210  and  _211
REMARK   87  A    between atoms: _220  and  _222
REMARK   88  A    between atoms: _222  and  _223
REMARK   89  A    between atoms: _222  and  _225
REMARK   90  A    between atoms: _225  and  _226
REMARK   91  A    between atoms: _226  and  _227
REMARK   92  A    between atoms: _230  and  _232
REMARK   93  A    between atoms: _232  and  _233
REMARK   94  A    between atoms: _232  and  _235
REMARK   95  A    between atoms: _235  and  _236
REMARK   96  A    between atoms: _236  and  _237
REMARK   97  A    between atoms: _237  and  _238
REMARK   98  A    between atoms: _247  and  _249
REMARK   99  A    between atoms: _249  and  _250
REMARK  100  A    between atoms: _249  and  _252
REMARK  101  A    between atoms: _252  and  _253
REMARK  102  A    between atoms: _255  and  _257
REMARK  103  A    between atoms: _257  and  _258
REMARK  104  A    between atoms: _257  and  _260
REMARK  105  A    between atoms: _260  and  _261
REMARK  106  A    between atoms: _266  and  _267
REMARK  107  A    between atoms: _269  and  _271
REMARK  108  A    between atoms: _271  and  _272
REMARK  109  A    between atoms: _271  and  _274
REMARK  110  A    between atoms: _274  and  _275
REMARK  111  A    between atoms: _280  and  _282
REMARK  112  A    between atoms: _282  and  _283
REMARK  113  A    between atoms: _282  and  _285
REMARK  114  A    between atoms: _288  and  _290
REMARK  115  A    between atoms: _290  and  _291
REMARK  116  A    between atoms: _290  and  _293
REMARK  117  A    between atoms: _293  and  _294
REMARK  118  A    between atoms: _294  and  _295
REMARK  119  A    between atoms: _295  and  _296
REMARK  120  A    between atoms: _305  and  _307
REMARK  121  A    between atoms: _307  and  _308
REMARK  122  A    between atoms: _307  and  _310
REMARK  123  A    between atoms: _310  and  _311
REMARK  124  A    between atoms: _316  and  _318
REMARK  125  A    between atoms: _318  and  _319
REMARK  126  A    between atoms: _318  and  _321
REMARK  127  A    between atoms: _321  and  _322
REMARK  128  A    between atoms: _325  and  _327
REMARK  129  A    between atoms: _327  and  _328
REMARK  130  A    between atoms: _330  and  _332
REMARK  131  A    between atoms: _332  and  _333
REMARK  132  A    between atoms: _332  and  _335
REMARK  133  A    between atoms: _335  and  _336
REMARK  134  A    between atoms: _346  and  _348
REMARK  135  A    between atoms: _348  and  _349
REMARK  136  A    between atoms: _348  and  _351
REMARK  137  A    between atoms: _351  and  _352
REMARK  138  A    between atoms: _353  and  _355
REMARK  139  A    between atoms: _355  and  _356
REMARK  140  A    between atoms: _355  and  _358
REMARK  141  A    between atoms: _358  and  _359
REMARK  142  A    between atoms: _362  and  _364
REMARK  143  A    between atoms: _364  and  _365
REMARK  144  A    between atoms: _367  and  _369
REMARK  145  A    between atoms: _369  and  _370
REMARK  146  A    between atoms: _369  and  _372
REMARK  147  A    between atoms: _372  and  _373
REMARK  148  A    between atoms: _378  and  _379
REMARK  149  A    between atoms: _381  and  _383
REMARK  150  A    between atoms: _383  and  _384
REMARK  151  A    between atoms: _383  and  _386
REMARK  152  A    between atoms: _386  and  _387
REMARK  153  A    between atoms: _387  and  _388
REMARK  154  A    between atoms: _388  and  _389
REMARK  155  A    between atoms: _398  and  _400
REMARK  156  A    between atoms: _400  and  _401
REMARK  157  A    between atoms: _400  and  _403
REMARK  158  A    between atoms: _403  and  _404
REMARK  159  A    between atoms: _407  and  _409
REMARK  160  A    between atoms: _409  and  _410
REMARK  161  A    between atoms: _409  and  _412
REMARK  162  A    between atoms: _412  and  _413
REMARK  163  A    between atoms: _413  and  _414
REMARK  164  A    between atoms: _414  and  _415
REMARK  165  A    between atoms: _415  and  _416
REMARK  166  A    between atoms: _420  and  _422
REMARK  167  A    between atoms: _422  and  _423
REMARK  168  A    between atoms: _425  and  _427
REMARK  169  A    between atoms: _427  and  _428
REMARK  170  A    between atoms: _431  and  _433
REMARK  171  A    between atoms: _433  and  _434
REMARK  172  A    between atoms: _433  and  _436
REMARK  173  A    between atoms: _436  and  _437
REMARK  174  A    between atoms: _442  and  _444
REMARK  175  A    between atoms: _444  and  _445
REMARK  176  A    between atoms: _448  and  _450
REMARK  177  A    between atoms: _450  and  _451
REMARK  178  A    between atoms: _454  and  _455
REMARK  179  A    between atoms: _460  and  _462
REMARK  180  A    between atoms: _462  and  _463
REMARK  181  A    between atoms: _462  and  _465
REMARK  182  A    between atoms: _465  and  _466
REMARK  183  A    between atoms: _469  and  _471
REMARK  184  A    between atoms: _471  and  _472
REMARK  185  A    between atoms: _471  and  _474
REMARK  186  A    between atoms: _474  and  _475
REMARK  187  A    between atoms: _485  and  _487
REMARK  188  A    between atoms: _487  and  _488
REMARK  189  A    between atoms: _487  and  _490
REMARK  190  A    between atoms: _490  and  _491
REMARK  191  A    between atoms: _497  and  _498
REMARK  192  A    between atoms: _503  and  _505
REMARK  193  A    between atoms: _505  and  _506
REMARK  194  A    between atoms: _505  and  _508
REMARK  195  A    between atoms: _508  and  _509
REMARK  196  A    between atoms: _514  and  _516
REMARK  197  A    between atoms: _516  and  _517
REMARK  198  A    between atoms: _516  and  _519
REMARK  199  A    between atoms: _522  and  _524
REMARK  200  A    between atoms: _524  and  _525
REMARK  201  A    between atoms: _524  and  _527
REMARK  202  A    between atoms: _527  and  _528
REMARK  203  A    between atoms: _528  and  _529
REMARK  204  A    between atoms: _535  and  _536
REMARK  205  A    between atoms: _541  and  _543
REMARK  206  A    between atoms: _543  and  _544
REMARK  207  A    between atoms: _543  and  _546
REMARK  208  A    between atoms: _546  and  _547
REMARK  209  A    between atoms: _550  and  _552
REMARK  210  A    between atoms: _552  and  _553
REMARK  211  A    between atoms: _552  and  _555
REMARK  212  A    between atoms: _555  and  _556
REMARK  213  A    between atoms: _558  and  _560
REMARK  214  A    between atoms: _560  and  _561
REMARK  215  A    between atoms: _560  and  _563
REMARK  216  A    between atoms: _563  and  _564
REMARK  217  A    between atoms: _569  and  _570
REMARK  218  A    between atoms: _572  and  _574
REMARK  219  A    between atoms: _574  and  _575
REMARK  220  A    between atoms: _574  and  _577
REMARK  221  A    between atoms: _577  and  _578
REMARK  222  A    between atoms: _588  and  _590
REMARK  223  A    between atoms: _590  and  _591
REMARK  224  A    between atoms: _593  and  _595
REMARK  225  A    between atoms: _595  and  _596
REMARK  226  A    between atoms: _599  and  _601
REMARK  227  A    between atoms: _601  and  _602
REMARK  228  A    between atoms: _601  and  _604
REMARK  229  A    between atoms: _604  and  _605
REMARK  230  A    between atoms: _610  and  _612
REMARK  231  A    between atoms: _612  and  _613
REMARK  232  A    between atoms: _616  and  _618
REMARK  233  A    between atoms: _618  and  _619
REMARK  234  A    between atoms: _622  and  _623
REMARK  235  A    between atoms: _628  and  _630
REMARK  236  A    between atoms: _630  and  _631
REMARK  237  A    between atoms: _630  and  _633
REMARK  238  A    between atoms: _633  and  _634
REMARK  239  A    between atoms: _637  and  _639
REMARK  240  A    between atoms: _639  and  _640
REMARK  241  A    between atoms: _639  and  _642
REMARK  242  A    between atoms: _642  and  _643
REMARK  243  A    between atoms: _653  and  _655
REMARK  244  A    between atoms: _655  and  _656
REMARK  245  A    between atoms: _655  and  _658
REMARK  246  A    between atoms: _658  and  _659
REMARK  247  A    between atoms: _664  and  _666
REMARK  248  A    between atoms: _666  and  _667
REMARK  249  A    between atoms: _666  and  _669
REMARK  250  A    between atoms: _669  and  _670
REMARK  251  A    between atoms: _673  and  _675
REMARK  252  A    between atoms: _675  and  _676
REMARK  253  A    between atoms: _675  and  _678
REMARK  254  A    between atoms: _678  and  _679
REMARK  255  A    between atoms: _679  and  _680
REMARK  256  A    between atoms: _683  and  _685
REMARK  257  A    between atoms: _685  and  _686
REMARK  258  A    between atoms: _685  and  _688
REMARK  259  A    between atoms: _688  and  _689
REMARK  260  A    between atoms: _689  and  _690
REMARK  261  A    between atoms: _690  and  _691
REMARK  262  A    between atoms: _691  and  _692
REMARK  263  A    between atoms: _696  and  _698
REMARK  264  A    between atoms: _698  and  _699
REMARK  265  A    between atoms: _698  and  _701
REMARK  266  A    between atoms: _701  and  _702
REMARK  267  A    between atoms: _707  and  _709
REMARK  268  A    between atoms: _709  and  _710
REMARK  269  A    between atoms: _709  and  _712
REMARK  270  A    between atoms: _712  and  _713
REMARK  271  A    between atoms: _713  and  _714
REMARK  272  A    between atoms: _714  and  _715
REMARK  273  A    between atoms: _724  and  _726
REMARK  274  A    between atoms: _726  and  _727
REMARK  275  A    between atoms: _726  and  _729
REMARK  276  A    between atoms: _729  and  _730
REMARK  277  A    between atoms: _733  and  _735
REMARK  278  A    between atoms: _735  and  _736
REMARK  279  A    between atoms: _735  and  _738
REMARK  280  A    between atoms: _741  and  _743
REMARK  281  A    between atoms: _743  and  _744
REMARK  282  A    between atoms: _743  and  _746
REMARK  283  A    between atoms: _746  and  _747
REMARK  284  A    between atoms: _747  and  _748
REMARK  285  A    between atoms: _754  and  _755
REMARK  286  A    between atoms: _760  and  _762
REMARK  287  A    between atoms: _762  and  _763
REMARK  288  A    between atoms: _762  and  _765
REMARK  289  A    between atoms: _765  and  _766
REMARK  290  A    between atoms: _769  and  _771
REMARK  291  A    between atoms: _771  and  _772
REMARK  292  A    between atoms: _771  and  _774
REMARK  293  A    between atoms: _774  and  _775
REMARK  294  A    between atoms: _775  and  _776
REMARK  295  A    between atoms: _776  and  _777
REMARK  296  A    between atoms: _786  and  _788
REMARK  297  A    between atoms: _788  and  _789
REMARK                            x       y       z     vdW  Elec       q    Type
REMARK                         _______ _______ _______ _____ _____    ______ ____
ROOT
ATOM      1  O   HOH     1      19.908  32.073 -20.960  0.00  0.00    +0.000 OA
ENDROOT
TORSDOF 0
REMARK  Name = ../refined-set-2016/3o4k/3o4k_pocket.pdb
REMARK  297 active torsions:
REMARK  status: ('A' for Active; 'I' for Inactive)
REMARK    1  A    between atoms: _1  and  _3
REMARK    2  A    between atoms: _3  and  _4
REMARK    3  A    between atoms: _3  and  _6
REMARK    4  A    between atoms: _6  and  _7
REMARK    5  A    between atoms: _7  and  _8
REMARK    6  A    between atoms: _8  and  _9
REMARK    7  A    between atoms: _18  and  _20
REMARK    8  A    between atoms: _20  and  _21
REMARK    9  A    between atoms: _20  and  _23
REMARK   10  A    between atoms: _23  and  _24
REMARK   11  A    between atoms: _29  and  _30
REMARK   12  A    between atoms: _32  and  _34
REMARK   13  A    between atoms: _34  and  _35
REMARK   14  A    between atoms: _34  and  _37
REMARK   15  A    between atoms: _37  and  _38
REMARK   16  A    between atoms: _48  and  _50
REMARK   17  A    between atoms: _50  and  _51
REMARK   18  A    between atoms: _50  and  _53
REMARK   19  A    between atoms: _53  and  _54
REMARK   20  A    between atoms: _54  and  _55
REMARK   21  A    between atoms: _55  and  _56
REMARK   22  A    between atoms: _65  and  _67
REMARK   23  A    between atoms: _67  and  _68
REMARK   24  A    between atoms: _67  and  _70
REMARK   25  A    between atoms: _70  and  _71
REMARK   26  A    between atoms: _73  and  _75
REMARK   27  A    between atoms: _75  and  _76
REMARK   28  A    between atoms: _75  and  _78
REMARK   29  A    between atoms: _78  and  _79
REMARK   30  A    between atoms: _84  and  _86
REMARK   31  A    between atoms: _86  and  _87
REMARK   32  A    between atoms: _86  and  _89
REMARK   33  A    between atoms: _89  and  _90
REMARK   34  A    between atoms: _95  and  _96
REMARK   35  A    between atoms: _98  and  _100
REMARK   36  A    between atoms: _100  and  _101
REMARK   37  A    between atoms: _100  and  _103
REMARK   38  A    between atoms: _103  and  _104
REMARK   39  A    between atoms: _104  and  _105
REMARK   40  A    between atoms: _108  and  _110
REMARK   41  A    between atoms: _110  and  _111
REMARK   42  A    between atoms: _110  and  _113
REMARK   43  A    between atoms: _116  and  _118
REMARK   44  A    between atoms: _118  and  _119
REMARK   45  A    between atoms: _118  and  _121
REMARK   46  A    between atoms: _121  and  _122
REMARK   47  A    between atoms: _122  and  _123
REMARK   48  A    between atoms: _123  and  _124
REMARK   49  A    between atoms: _124  and  _125
REMARK   50  A    between atoms: _129  and  _131
REMARK   51  A    between atoms: _131  and  _132
REMARK   52  A    between atoms: _131  and  _134
REMARK   53  A    between atoms: _134  and  _135
REMARK   54  A    between atoms: _140  and  _142
REMARK   55  A    between atoms: _142  and  _143
REMARK   56  A    between atoms: _142  and  _145
REMARK   57  A    between atoms: _145  and  _146
REMARK   58  A    between atoms: _151  and  _152
REMARK   59  A    between atoms: _154  and  _156
REMARK   60  A    between atoms: _156  and  _157
REMARK   61  A    between atoms: _156  and  _159
REMARK   62  A    between atoms: _159  and  _160
REMARK   63  A    between atoms: _160  and  _161
REMARK   64  A    between atoms: _161  and  _162
REMARK   65  A    between atoms: _171  and  _173
REMARK   66  A    between atoms: _173  and  _174
REMARK   67  A    between atoms: _178  and  _180
REMARK   68  A    between atoms: _180  and  _181
REMARK   69  A    between atoms: _180  and  _183
REMARK   70  A    between atoms: _183  and  _184
REMARK   71  A    between atoms: _186  and  _188
REMARK   72  A    between atoms: _188  and  _189
REMARK   73  A    between atoms: _188  and  _191
REMARK   74  A    between atoms: _191  and  _192
REMARK   75  A    between atoms: _192  and  _193
REMARK   76  A    between atoms: _196  and  _198
REMARK   77  A    between atoms: _198  and  _199
REMARK   78  A    between atoms: _198  and  _201
REMARK   79  A    between atoms: _201  and  _202
REMARK   80  A    between atoms: _202  and  _352
REMARK   81  A    between atoms: _203  and  _205
REMARK   82  A    between atoms: _205  and  _206
REMARK   83  A    between atoms: _205  and  _208
REMARK   84  A    between atoms: _208  and  _209
REMARK   85  A    between atoms: _209  and  _210
REMARK   86  A    between atoms: _210  and  _211
REMARK   87  A    between atoms: _220  and  _222
REMARK   88  A    between atoms: _222  and  _223
REMARK   89  A    between atoms: _222  and  _225
REMARK   90  A    between atoms: _225  and  _226
REMARK   91  A    between atoms: _226  and  _227
REMARK   92  A    between atoms: _230  and  _232
REMARK   93  A    between atoms: _232  and  _233
REMARK   94  A    between atoms: _232  and  _235
REMARK   95  A    between atoms: _235  and  _236
REMARK   96  A    between atoms: _236  and  _237
REMARK   97  A    between atoms: _237  and  _238
REMARK   98  A    between atoms: _247  and  _249
REMARK   99  A    between atoms: _249  and  _250
REMARK  100  A    between atoms: _249  and  _252
REMARK  101  A    between atoms: _252  and  _253
REMARK  102  A    between atoms: _255  and  _257
REMARK  103  A    between atoms: _257  and  _258
REMARK  104  A    between atoms: _257  and  _260
REMARK  105  A    between atoms: _260  and  _261
REMARK  106  A    between atoms: _266  and  _267
REMARK  107  A    between atoms: _269  and  _271
REMARK  108  A    between atoms: _271  and  _272
REMARK  109  A    between atoms: _271  and  _274
REMARK  110  A    between atoms: _274  and  _275
REMARK  111  A    between atoms: _280  and  _282
REMARK  112  A    between atoms: _282  and  _283
REMARK  113  A    between atoms: _282  and  _285
REMARK  114  A    between atoms: _288  and  _290
REMARK  115  A    between atoms: _290  and  _291
REMARK  116  A    between atoms: _290  and  _293
REMARK  117  A    between atoms: _293  and  _294
REMARK  118  A    between atoms: _294  and  _295
REMARK  119  A    between atoms: _295  and  _296
REMARK  120  A    between atoms: _305  and  _307
REMARK  121  A    between atoms: _307  and  _308
REMARK  122  A    between atoms: _307  and  _310
REMARK  123  A    between atoms: _310  and  _311
REMARK  124  A    between atoms: _316  and  _318
REMARK  125  A    between atoms: _318  and  _319
REMARK  126  A    between atoms: _318  and  _321
REMARK  127  A    between atoms: _321  and  _322
REMARK  128  A    between atoms: _325  and  _327
REMARK  129  A    between atoms: _327  and  _328
REMARK  130  A    between atoms: _330  and  _332
REMARK  131  A    between atoms: _332  and  _333
REMARK  132  A    between atoms: _332  and  _335
REMARK  133  A    between atoms: _335  and  _336
REMARK  134  A    between atoms: _346  and  _348
REMARK  135  A    between atoms: _348  and  _349
REMARK  136  A    between atoms: _348  and  _351
REMARK  137  A    between atoms: _351  and  _352
REMARK  138  A    between atoms: _353  and  _355
REMARK  139  A    between atoms: _355  and  _356
REMARK  140  A    between atoms: _355  and  _358
REMARK  141  A    between atoms: _358  and  _359
REMARK  142  A    between atoms: _362  and  _364
REMARK  143  A    between atoms: _364  and  _365
REMARK  144  A    between atoms: _367  and  _369
REMARK  145  A    between atoms: _369  and  _370
REMARK  146  A    between atoms: _369  and  _372
REMARK  147  A    between atoms: _372  and  _373
REMARK  148  A    between atoms: _378  and  _379
REMARK  149  A    between atoms: _381  and  _383
REMARK  150  A    between atoms: _383  and  _384
REMARK  151  A    between atoms: _383  and  _386
REMARK  152  A    between atoms: _386  and  _387
REMARK  153  A    between atoms: _387  and  _388
REMARK  154  A    between atoms: _388  and  _389
REMARK  155  A    between atoms: _398  and  _400
REMARK  156  A    between atoms: _400  and  _401
REMARK  157  A    between atoms: _400  and  _403
REMARK  158  A    between atoms: _403  and  _404
REMARK  159  A    between atoms: _407  and  _409
REMARK  160  A    between atoms: _409  and  _410
REMARK  161  A    between atoms: _409  and  _412
REMARK  162  A    between atoms: _412  and  _413
REMARK  163  A    between atoms: _413  and  _414
REMARK  164  A    between atoms: _414  and  _415
REMARK  165  A    between atoms: _415  and  _416
REMARK  166  A    between atoms: _420  and  _422
REMARK  167  A    between atoms: _422  and  _423
REMARK  168  A    between atoms: _425  and  _427
REMARK  169  A    between atoms: _427  and  _428
REMARK  170  A    between atoms: _431  and  _433
REMARK  171  A    between atoms: _433  and  _434
REMARK  172  A    between atoms: _433  and  _436
REMARK  173  A    between atoms: _436  and  _437
REMARK  174  A    between atoms: _442  and  _444
REMARK  175  A    between atoms: _444  and  _445
REMARK  176  A    between atoms: _448  and  _450
REMARK  177  A    between atoms: _450  and  _451
REMARK  178  A    between atoms: _454  and  _455
REMARK  179  A    between atoms: _460  and  _462
REMARK  180  A    between atoms: _462  and  _463
REMARK  181  A    between atoms: _462  and  _465
REMARK  182  A    between atoms: _465  and  _466
REMARK  183  A    between atoms: _469  and  _471
REMARK  184  A    between atoms: _471  and  _472
REMARK  185  A    between atoms: _471  and  _474
REMARK  186  A    between atoms: _474  and  _475
REMARK  187  A    between atoms: _485  and  _487
REMARK  188  A    between atoms: _487  and  _488
REMARK  189  A    between atoms: _487  and  _490
REMARK  190  A    between atoms: _490  and  _491
REMARK  191  A    between atoms: _497  and  _498
REMARK  192  A    between atoms: _503  and  _505
REMARK  193  A    between atoms: _505  and  _506
REMARK  194  A    between atoms: _505  and  _508
REMARK  195  A    between atoms: _508  and  _509
REMARK  196  A    between atoms: _514  and  _516
REMARK  197  A    between atoms: _516  and  _517
REMARK  198  A    between atoms: _516  and  _519
REMARK  199  A    between atoms: _522  and  _524
REMARK  200  A    between atoms: _524  and  _525
REMARK  201  A    between atoms: _524  and  _527
REMARK  202  A    between atoms: _527  and  _528
REMARK  203  A    between atoms: _528  and  _529
REMARK  204  A    between atoms: _535  and  _536
REMARK  205  A    between atoms: _541  and  _543
REMARK  206  A    between atoms: _543  and  _544
REMARK  207  A    between atoms: _543  and  _546
REMARK  208  A    between atoms: _546  and  _547
REMARK  209  A    between atoms: _550  and  _552
REMARK  210  A    between atoms: _552  and  _553
REMARK  211  A    between atoms: _552  and  _555
REMARK  212  A    between atoms: _555  and  _556
REMARK  213  A    between atoms: _558  and  _560
REMARK  214  A    between atoms: _560  and  _561
REMARK  215  A    between atoms: _560  and  _563
REMARK  216  A    between atoms: _563  and  _564
REMARK  217  A    between atoms: _569  and  _570
REMARK  218  A    between atoms: _572  and  _574
REMARK  219  A    between atoms: _574  and  _575
REMARK  220  A    between atoms: _574  and  _577
REMARK  221  A    between atoms: _577  and  _578
REMARK  222  A    between atoms: _588  and  _590
REMARK  223  A    between atoms: _590  and  _591
REMARK  224  A    between atoms: _593  and  _595
REMARK  225  A    between atoms: _595  and  _596
REMARK  226  A    between atoms: _599  and  _601
REMARK  227  A    between atoms: _601  and  _602
REMARK  228  A    between atoms: _601  and  _604
REMARK  229  A    between atoms: _604  and  _605
REMARK  230  A    between atoms: _610  and  _612
REMARK  231  A    between atoms: _612  and  _613
REMARK  232  A    between atoms: _616  and  _618
REMARK  233  A    between atoms: _618  and  _619
REMARK  234  A    between atoms: _622  and  _623
REMARK  235  A    between atoms: _628  and  _630
REMARK  236  A    between atoms: _630  and  _631
REMARK  237  A    between atoms: _630  and  _633
REMARK  238  A    between atoms: _633  and  _634
REMARK  239  A    between atoms: _637  and  _639
REMARK  240  A    between atoms: _639  and  _640
REMARK  241  A    between atoms: _639  and  _642
REMARK  242  A    between atoms: _642  and  _643
REMARK  243  A    between atoms: _653  and  _655
REMARK  244  A    between atoms: _655  and  _656
REMARK  245  A    between atoms: _655  and  _658
REMARK  246  A    between atoms: _658  and  _659
REMARK  247  A    between atoms: _664  and  _666
REMARK  248  A    between atoms: _666  and  _667
REMARK  249  A    between atoms: _666  and  _669
REMARK  250  A    between atoms: _669  and  _670
REMARK  251  A    between atoms: _673  and  _675
REMARK  252  A    between atoms: _675  and  _676
REMARK  253  A    between atoms: _675  and  _678
REMARK  254  A    between atoms: _678  and  _679
REMARK  255  A    between atoms: _679  and  _680
REMARK  256  A    between atoms: _683  and  _685
REMARK  257  A    between atoms: _685  and  _686
REMARK  258  A    between atoms: _685  and  _688
REMARK  259  A    between atoms: _688  and  _689
REMARK  260  A    between atoms: _689  and  _690
REMARK  261  A    between atoms: _690  and  _691
REMARK  262  A    between atoms: _691  and  _692
REMARK  263  A    between atoms: _696  and  _698
REMARK  264  A    between atoms: _698  and  _699
REMARK  265  A    between atoms: _698  and  _701
REMARK  266  A    between atoms: _701  and  _702
REMARK  267  A    between atoms: _707  and  _709
REMARK  268  A    between atoms: _709  and  _710
REMARK  269  A    between atoms: _709  and  _712
REMARK  270  A    between atoms: _712  and  _713
REMARK  271  A    between atoms: _713  and  _714
REMARK  272  A    between atoms: _714  and  _715
REMARK  273  A    between atoms: _724  and  _726
REMARK  274  A    between atoms: _726  and  _727
REMARK  275  A    between atoms: _726  and  _729
REMARK  276  A    between atoms: _729  and  _730
REMARK  277  A    between atoms: _733  and  _735
REMARK  278  A    between atoms: _735  and  _736
REMARK  279  A    between atoms: _735  and  _738
REMARK  280  A    between atoms: _741  and  _743
REMARK  281  A    between atoms: _743  and  _744
REMARK  282  A    between atoms: _743  and  _746
REMARK  283  A    between atoms: _746  and  _747
REMARK  284  A    between atoms: _747  and  _748
REMARK  285  A    between atoms: _754  and  _755
REMARK  286  A    between atoms: _760  and  _762
REMARK  287  A    between atoms: _762  and  _763
REMARK  288  A    between atoms: _762  and  _765
REMARK  289  A    between atoms: _765  and  _766
REMARK  290  A    between atoms: _769  and  _771
REMARK  291  A    between atoms: _771  and  _772
REMARK  292  A    between atoms: _771  and  _774
REMARK  293  A    between atoms: _774  and  _775
REMARK  294  A    between atoms: _775  and  _776
REMARK  295  A    between atoms: _776  and  _777
REMARK  296  A    between atoms: _786  and  _788
REMARK  297  A    between atoms: _788  and  _789
REMARK                            x       y       z     vdW  Elec       q    Type
REMARK                         _______ _______ _______ _____ _____    ______ ____
ROOT
ATOM      1  O   HOH     1       9.608  31.126 -18.852  0.00  0.00    +0.000 OA
ENDROOT
TORSDOF 0
REMARK  Name = ../refined-set-2016/3o4k/3o4k_pocket.pdb
REMARK  297 active torsions:
REMARK  status: ('A' for Active; 'I' for Inactive)
REMARK    1  A    between atoms: _1  and  _3
REMARK    2  A    between atoms: _3  and  _4
REMARK    3  A    between atoms: _3  and  _6
REMARK    4  A    between atoms: _6  and  _7
REMARK    5  A    between atoms: _7  and  _8
REMARK    6  A    between atoms: _8  and  _9
REMARK    7  A    between atoms: _18  and  _20
REMARK    8  A    between atoms: _20  and  _21
REMARK    9  A    between atoms: _20  and  _23
REMARK   10  A    between atoms: _23  and  _24
REMARK   11  A    between atoms: _29  and  _30
REMARK   12  A    between atoms: _32  and  _34
REMARK   13  A    between atoms: _34  and  _35
REMARK   14  A    between atoms: _34  and  _37
REMARK   15  A    between atoms: _37  and  _38
REMARK   16  A    between atoms: _48  and  _50
REMARK   17  A    between atoms: _50  and  _51
REMARK   18  A    between atoms: _50  and  _53
REMARK   19  A    between atoms: _53  and  _54
REMARK   20  A    between atoms: _54  and  _55
REMARK   21  A    between atoms: _55  and  _56
REMARK   22  A    between atoms: _65  and  _67
REMARK   23  A    between atoms: _67  and  _68
REMARK   24  A    between atoms: _67  and  _70
REMARK   25  A    between atoms: _70  and  _71
REMARK   26  A    between atoms: _73  and  _75
REMARK   27  A    between atoms: _75  and  _76
REMARK   28  A    between atoms: _75  and  _78
REMARK   29  A    between atoms: _78  and  _79
REMARK   30  A    between atoms: _84  and  _86
REMARK   31  A    between atoms: _86  and  _87
REMARK   32  A    between atoms: _86  and  _89
REMARK   33  A    between atoms: _89  and  _90
REMARK   34  A    between atoms: _95  and  _96
REMARK   35  A    between atoms: _98  and  _100
REMARK   36  A    between atoms: _100  and  _101
REMARK   37  A    between atoms: _100  and  _103
REMARK   38  A    between atoms: _103  and  _104
REMARK   39  A    between atoms: _104  and  _105
REMARK   40  A    between atoms: _108  and  _110
REMARK   41  A    between atoms: _110  and  _111
REMARK   42  A    between atoms: _110  and  _113
REMARK   43  A    between atoms: _116  and  _118
REMARK   44  A    between atoms: _118  and  _119
REMARK   45  A    between atoms: _118  and  _121
REMARK   46  A    between atoms: _121  and  _122
REMARK   47  A    between atoms: _122  and  _123
REMARK   48  A    between atoms: _123  and  _124
REMARK   49  A    between atoms: _124  and  _125
REMARK   50  A    between atoms: _129  and  _131
REMARK   51  A    between atoms: _131  and  _132
REMARK   52  A    between atoms: _131  and  _134
REMARK   53  A    between atoms: _134  and  _135
REMARK   54  A    between atoms: _140  and  _142
REMARK   55  A    between atoms: _142  and  _143
REMARK   56  A    between atoms: _142  and  _145
REMARK   57  A    between atoms: _145  and  _146
REMARK   58  A    between atoms: _151  and  _152
REMARK   59  A    between atoms: _154  and  _156
REMARK   60  A    between atoms: _156  and  _157
REMARK   61  A    between atoms: _156  and  _159
REMARK   62  A    between atoms: _159  and  _160
REMARK   63  A    between atoms: _160  and  _161
REMARK   64  A    between atoms: _161  and  _162
REMARK   65  A    between atoms: _171  and  _173
REMARK   66  A    between atoms: _173  and  _174
REMARK   67  A    between atoms: _178  and  _180
REMARK   68  A    between atoms: _180  and  _181
REMARK   69  A    between atoms: _180  and  _183
REMARK   70  A    between atoms: _183  and  _184
REMARK   71  A    between atoms: _186  and  _188
REMARK   72  A    between atoms: _188  and  _189
REMARK   73  A    between atoms: _188  and  _191
REMARK   74  A    between atoms: _191  and  _192
REMARK   75  A    between atoms: _192  and  _193
REMARK   76  A    between atoms: _196  and  _198
REMARK   77  A    between atoms: _198  and  _199
REMARK   78  A    between atoms: _198  and  _201
REMARK   79  A    between atoms: _201  and  _202
REMARK   80  A    between atoms: _202  and  _352
REMARK   81  A    between atoms: _203  and  _205
REMARK   82  A    between atoms: _205  and  _206
REMARK   83  A    between atoms: _205  and  _208
REMARK   84  A    between atoms: _208  and  _209
REMARK   85  A    between atoms: _209  and  _210
REMARK   86  A    between atoms: _210  and  _211
REMARK   87  A    between atoms: _220  and  _222
REMARK   88  A    between atoms: _222  and  _223
REMARK   89  A    between atoms: _222  and  _225
REMARK   90  A    between atoms: _225  and  _226
REMARK   91  A    between atoms: _226  and  _227
REMARK   92  A    between atoms: _230  and  _232
REMARK   93  A    between atoms: _232  and  _233
REMARK   94  A    between atoms: _232  and  _235
REMARK   95  A    between atoms: _235  and  _236
REMARK   96  A    between atoms: _236  and  _237
REMARK   97  A    between atoms: _237  and  _238
REMARK   98  A    between atoms: _247  and  _249
REMARK   99  A    between atoms: _249  and  _250
REMARK  100  A    between atoms: _249  and  _252
REMARK  101  A    between atoms: _252  and  _253
REMARK  102  A    between atoms: _255  and  _257
REMARK  103  A    between atoms: _257  and  _258
REMARK  104  A    between atoms: _257  and  _260
REMARK  105  A    between atoms: _260  and  _261
REMARK  106  A    between atoms: _266  and  _267
REMARK  107  A    between atoms: _269  and  _271
REMARK  108  A    between atoms: _271  and  _272
REMARK  109  A    between atoms: _271  and  _274
REMARK  110  A    between atoms: _274  and  _275
REMARK  111  A    between atoms: _280  and  _282
REMARK  112  A    between atoms: _282  and  _283
REMARK  113  A    between atoms: _282  and  _285
REMARK  114  A    between atoms: _288  and  _290
REMARK  115  A    between atoms: _290  and  _291
REMARK  116  A    between atoms: _290  and  _293
REMARK  117  A    between atoms: _293  and  _294
REMARK  118  A    between atoms: _294  and  _295
REMARK  119  A    between atoms: _295  and  _296
REMARK  120  A    between atoms: _305  and  _307
REMARK  121  A    between atoms: _307  and  _308
REMARK  122  A    between atoms: _307  and  _310
REMARK  123  A    between atoms: _310  and  _311
REMARK  124  A    between atoms: _316  and  _318
REMARK  125  A    between atoms: _318  and  _319
REMARK  126  A    between atoms: _318  and  _321
REMARK  127  A    between atoms: _321  and  _322
REMARK  128  A    between atoms: _325  and  _327
REMARK  129  A    between atoms: _327  and  _328
REMARK  130  A    between atoms: _330  and  _332
REMARK  131  A    between atoms: _332  and  _333
REMARK  132  A    between atoms: _332  and  _335
REMARK  133  A    between atoms: _335  and  _336
REMARK  134  A    between atoms: _346  and  _348
REMARK  135  A    between atoms: _348  and  _349
REMARK  136  A    between atoms: _348  and  _351
REMARK  137  A    between atoms: _351  and  _352
REMARK  138  A    between atoms: _353  and  _355
REMARK  139  A    between atoms: _355  and  _356
REMARK  140  A    between atoms: _355  and  _358
REMARK  141  A    between atoms: _358  and  _359
REMARK  142  A    between atoms: _362  and  _364
REMARK  143  A    between atoms: _364  and  _365
REMARK  144  A    between atoms: _367  and  _369
REMARK  145  A    between atoms: _369  and  _370
REMARK  146  A    between atoms: _369  and  _372
REMARK  147  A    between atoms: _372  and  _373
REMARK  148  A    between atoms: _378  and  _379
REMARK  149  A    between atoms: _381  and  _383
REMARK  150  A    between atoms: _383  and  _384
REMARK  151  A    between atoms: _383  and  _386
REMARK  152  A    between atoms: _386  and  _387
REMARK  153  A    between atoms: _387  and  _388
REMARK  154  A    between atoms: _388  and  _389
REMARK  155  A    between atoms: _398  and  _400
REMARK  156  A    between atoms: _400  and  _401
REMARK  157  A    between atoms: _400  and  _403
REMARK  158  A    between atoms: _403  and  _404
REMARK  159  A    between atoms: _407  and  _409
REMARK  160  A    between atoms: _409  and  _410
REMARK  161  A    between atoms: _409  and  _412
REMARK  162  A    between atoms: _412  and  _413
REMARK  163  A    between atoms: _413  and  _414
REMARK  164  A    between atoms: _414  and  _415
REMARK  165  A    between atoms: _415  and  _416
REMARK  166  A    between atoms: _420  and  _422
REMARK  167  A    between atoms: _422  and  _423
REMARK  168  A    between atoms: _425  and  _427
REMARK  169  A    between atoms: _427  and  _428
REMARK  170  A    between atoms: _431  and  _433
REMARK  171  A    between atoms: _433  and  _434
REMARK  172  A    between atoms: _433  and  _436
REMARK  173  A    between atoms: _436  and  _437
REMARK  174  A    between atoms: _442  and  _444
REMARK  175  A    between atoms: _444  and  _445
REMARK  176  A    between atoms: _448  and  _450
REMARK  177  A    between atoms: _450  and  _451
REMARK  178  A    between atoms: _454  and  _455
REMARK  179  A    between atoms: _460  and  _462
REMARK  180  A    between atoms: _462  and  _463
REMARK  181  A    between atoms: _462  and  _465
REMARK  182  A    between atoms: _465  and  _466
REMARK  183  A    between atoms: _469  and  _471
REMARK  184  A    between atoms: _471  and  _472
REMARK  185  A    between atoms: _471  and  _474
REMARK  186  A    between atoms: _474  and  _475
REMARK  187  A    between atoms: _485  and  _487
REMARK  188  A    between atoms: _487  and  _488
REMARK  189  A    between atoms: _487  and  _490
REMARK  190  A    between atoms: _490  and  _491
REMARK  191  A    between atoms: _497  and  _498
REMARK  192  A    between atoms: _503  and  _505
REMARK  193  A    between atoms: _505  and  _506
REMARK  194  A    between atoms: _505  and  _508
REMARK  195  A    between atoms: _508  and  _509
REMARK  196  A    between atoms: _514  and  _516
REMARK  197  A    between atoms: _516  and  _517
REMARK  198  A    between atoms: _516  and  _519
REMARK  199  A    between atoms: _522  and  _524
REMARK  200  A    between atoms: _524  and  _525
REMARK  201  A    between atoms: _524  and  _527
REMARK  202  A    between atoms: _527  and  _528
REMARK  203  A    between atoms: _528  and  _529
REMARK  204  A    between atoms: _535  and  _536
REMARK  205  A    between atoms: _541  and  _543
REMARK  206  A    between atoms: _543  and  _544
REMARK  207  A    between atoms: _543  and  _546
REMARK  208  A    between atoms: _546  and  _547
REMARK  209  A    between atoms: _550  and  _552
REMARK  210  A    between atoms: _552  and  _553
REMARK  211  A    between atoms: _552  and  _555
REMARK  212  A    between atoms: _555  and  _556
REMARK  213  A    between atoms: _558  and  _560
REMARK  214  A    between atoms: _560  and  _561
REMARK  215  A    between atoms: _560  and  _563
REMARK  216  A    between atoms: _563  and  _564
REMARK  217  A    between atoms: _569  and  _570
REMARK  218  A    between atoms: _572  and  _574
REMARK  219  A    between atoms: _574  and  _575
REMARK  220  A    between atoms: _574  and  _577
REMARK  221  A    between atoms: _577  and  _578
REMARK  222  A    between atoms: _588  and  _590
REMARK  223  A    between atoms: _590  and  _591
REMARK  224  A    between atoms: _593  and  _595
REMARK  225  A    between atoms: _595  and  _596
REMARK  226  A    between atoms: _599  and  _601
REMARK  227  A    between atoms: _601  and  _602
REMARK  228  A    between atoms: _601  and  _604
REMARK  229  A    between atoms: _604  and  _605
REMARK  230  A    between atoms: _610  and  _612
REMARK  231  A    between atoms: _612  and  _613
REMARK  232  A    between atoms: _616  and  _618
REMARK  233  A    between atoms: _618  and  _619
REMARK  234  A    between atoms: _622  and  _623
REMARK  235  A    between atoms: _628  and  _630
REMARK  236  A    between atoms: _630  and  _631
REMARK  237  A    between atoms: _630  and  _633
REMARK  238  A    between atoms: _633  and  _634
REMARK  239  A    between atoms: _637  and  _639
REMARK  240  A    between atoms: _639  and  _640
REMARK  241  A    between atoms: _639  and  _642
REMARK  242  A    between atoms: _642  and  _643
REMARK  243  A    between atoms: _653  and  _655
REMARK  244  A    between atoms: _655  and  _656
REMARK  245  A    between atoms: _655  and  _658
REMARK  246  A    between atoms: _658  and  _659
REMARK  247  A    between atoms: _664  and  _666
REMARK  248  A    between atoms: _666  and  _667
REMARK  249  A    between atoms: _666  and  _669
REMARK  250  A    between atoms: _669  and  _670
REMARK  251  A    between atoms: _673  and  _675
REMARK  252  A    between atoms: _675  and  _676
REMARK  253  A    between atoms: _675  and  _678
REMARK  254  A    between atoms: _678  and  _679
REMARK  255  A    between atoms: _679  and  _680
REMARK  256  A    between atoms: _683  and  _685
REMARK  257  A    between atoms: _685  and  _686
REMARK  258  A    between atoms: _685  and  _688
REMARK  259  A    between atoms: _688  and  _689
REMARK  260  A    between atoms: _689  and  _690
REMARK  261  A    between atoms: _690  and  _691
REMARK  262  A    between atoms: _691  and  _692
REMARK  263  A    between atoms: _696  and  _698
REMARK  264  A    between atoms: _698  and  _699
REMARK  265  A    between atoms: _698  and  _701
REMARK  266  A    between atoms: _701  and  _702
REMARK  267  A    between atoms: _707  and  _709
REMARK  268  A    between atoms: _709  and  _710
REMARK  269  A    between atoms: _709  and  _712
REMARK  270  A    between atoms: _712  and  _713
REMARK  271  A    between atoms: _713  and  _714
REMARK  272  A    between atoms: _714  and  _715
REMARK  273  A    between atoms: _724  and  _726
REMARK  274  A    between atoms: _726  and  _727
REMARK  275  A    between atoms: _726  and  _729
REMARK  276  A    between atoms: _729  and  _730
REMARK  277  A    between atoms: _733  and  _735
REMARK  278  A    between atoms: _735  and  _736
REMARK  279  A    between atoms: _735  and  _738
REMARK  280  A    between atoms: _741  and  _743
REMARK  281  A    between atoms: _743  and  _744
REMARK  282  A    between atoms: _743  and  _746
REMARK  283  A    between atoms: _746  and  _747
REMARK  284  A    between atoms: _747  and  _748
REMARK  285  A    between atoms: _754  and  _755
REMARK  286  A    between atoms: _760  and  _762
REMARK  287  A    between atoms: _762  and  _763
REMARK  288  A    between atoms: _762  and  _765
REMARK  289  A    between atoms: _765  and  _766
REMARK  290  A    between atoms: _769  and  _771
REMARK  291  A    between atoms: _771  and  _772
REMARK  292  A    between atoms: _771  and  _774
REMARK  293  A    between atoms: _774  and  _775
REMARK  294  A    between atoms: _775  and  _776
REMARK  295  A    between atoms: _776  and  _777
REMARK  296  A    between atoms: _786  and  _788
REMARK  297  A    between atoms: _788  and  _789
REMARK                            x       y       z     vdW  Elec       q    Type
REMARK                         _______ _______ _______ _____ _____    ______ ____
ROOT
ATOM      1  O   HOH     1      16.546  29.329 -18.474  0.00  0.00    +0.000 OA
ENDROOT
TORSDOF 0
REMARK  Name = ../refined-set-2016/3o4k/3o4k_pocket.pdb
REMARK  297 active torsions:
REMARK  status: ('A' for Active; 'I' for Inactive)
REMARK    1  A    between atoms: _1  and  _3
REMARK    2  A    between atoms: _3  and  _4
REMARK    3  A    between atoms: _3  and  _6
REMARK    4  A    between atoms: _6  and  _7
REMARK    5  A    between atoms: _7  and  _8
REMARK    6  A    between atoms: _8  and  _9
REMARK    7  A    between atoms: _18  and  _20
REMARK    8  A    between atoms: _20  and  _21
REMARK    9  A    between atoms: _20  and  _23
REMARK   10  A    between atoms: _23  and  _24
REMARK   11  A    between atoms: _29  and  _30
REMARK   12  A    between atoms: _32  and  _34
REMARK   13  A    between atoms: _34  and  _35
REMARK   14  A    between atoms: _34  and  _37
REMARK   15  A    between atoms: _37  and  _38
REMARK   16  A    between atoms: _48  and  _50
REMARK   17  A    between atoms: _50  and  _51
REMARK   18  A    between atoms: _50  and  _53
REMARK   19  A    between atoms: _53  and  _54
REMARK   20  A    between atoms: _54  and  _55
REMARK   21  A    between atoms: _55  and  _56
REMARK   22  A    between atoms: _65  and  _67
REMARK   23  A    between atoms: _67  and  _68
REMARK   24  A    between atoms: _67  and  _70
REMARK   25  A    between atoms: _70  and  _71
REMARK   26  A    between atoms: _73  and  _75
REMARK   27  A    between atoms: _75  and  _76
REMARK   28  A    between atoms: _75  and  _78
REMARK   29  A    between atoms: _78  and  _79
REMARK   30  A    between atoms: _84  and  _86
REMARK   31  A    between atoms: _86  and  _87
REMARK   32  A    between atoms: _86  and  _89
REMARK   33  A    between atoms: _89  and  _90
REMARK   34  A    between atoms: _95  and  _96
REMARK   35  A    between atoms: _98  and  _100
REMARK   36  A    between atoms: _100  and  _101
REMARK   37  A    between atoms: _100  and  _103
REMARK   38  A    between atoms: _103  and  _104
REMARK   39  A    between atoms: _104  and  _105
REMARK   40  A    between atoms: _108  and  _110
REMARK   41  A    between atoms: _110  and  _111
REMARK   42  A    between atoms: _110  and  _113
REMARK   43  A    between atoms: _116  and  _118
REMARK   44  A    between atoms: _118  and  _119
REMARK   45  A    between atoms: _118  and  _121
REMARK   46  A    between atoms: _121  and  _122
REMARK   47  A    between atoms: _122  and  _123
REMARK   48  A    between atoms: _123  and  _124
REMARK   49  A    between atoms: _124  and  _125
REMARK   50  A    between atoms: _129  and  _131
REMARK   51  A    between atoms: _131  and  _132
REMARK   52  A    between atoms: _131  and  _134
REMARK   53  A    between atoms: _134  and  _135
REMARK   54  A    between atoms: _140  and  _142
REMARK   55  A    between atoms: _142  and  _143
REMARK   56  A    between atoms: _142  and  _145
REMARK   57  A    between atoms: _145  and  _146
REMARK   58  A    between atoms: _151  and  _152
REMARK   59  A    between atoms: _154  and  _156
REMARK   60  A    between atoms: _156  and  _157
REMARK   61  A    between atoms: _156  and  _159
REMARK   62  A    between atoms: _159  and  _160
REMARK   63  A    between atoms: _160  and  _161
REMARK   64  A    between atoms: _161  and  _162
REMARK   65  A    between atoms: _171  and  _173
REMARK   66  A    between atoms: _173  and  _174
REMARK   67  A    between atoms: _178  and  _180
REMARK   68  A    between atoms: _180  and  _181
REMARK   69  A    between atoms: _180  and  _183
REMARK   70  A    between atoms: _183  and  _184
REMARK   71  A    between atoms: _186  and  _188
REMARK   72  A    between atoms: _188  and  _189
REMARK   73  A    between atoms: _188  and  _191
REMARK   74  A    between atoms: _191  and  _192
REMARK   75  A    between atoms: _192  and  _193
REMARK   76  A    between atoms: _196  and  _198
REMARK   77  A    between atoms: _198  and  _199
REMARK   78  A    between atoms: _198  and  _201
REMARK   79  A    between atoms: _201  and  _202
REMARK   80  A    between atoms: _202  and  _352
REMARK   81  A    between atoms: _203  and  _205
REMARK   82  A    between atoms: _205  and  _206
REMARK   83  A    between atoms: _205  and  _208
REMARK   84  A    between atoms: _208  and  _209
REMARK   85  A    between atoms: _209  and  _210
REMARK   86  A    between atoms: _210  and  _211
REMARK   87  A    between atoms: _220  and  _222
REMARK   88  A    between atoms: _222  and  _223
REMARK   89  A    between atoms: _222  and  _225
REMARK   90  A    between atoms: _225  and  _226
REMARK   91  A    between atoms: _226  and  _227
REMARK   92  A    between atoms: _230  and  _232
REMARK   93  A    between atoms: _232  and  _233
REMARK   94  A    between atoms: _232  and  _235
REMARK   95  A    between atoms: _235  and  _236
REMARK   96  A    between atoms: _236  and  _237
REMARK   97  A    between atoms: _237  and  _238
REMARK   98  A    between atoms: _247  and  _249
REMARK   99  A    between atoms: _249  and  _250
REMARK  100  A    between atoms: _249  and  _252
REMARK  101  A    between atoms: _252  and  _253
REMARK  102  A    between atoms: _255  and  _257
REMARK  103  A    between atoms: _257  and  _258
REMARK  104  A    between atoms: _257  and  _260
REMARK  105  A    between atoms: _260  and  _261
REMARK  106  A    between atoms: _266  and  _267
REMARK  107  A    between atoms: _269  and  _271
REMARK  108  A    between atoms: _271  and  _272
REMARK  109  A    between atoms: _271  and  _274
REMARK  110  A    between atoms: _274  and  _275
REMARK  111  A    between atoms: _280  and  _282
REMARK  112  A    between atoms: _282  and  _283
REMARK  113  A    between atoms: _282  and  _285
REMARK  114  A    between atoms: _288  and  _290
REMARK  115  A    between atoms: _290  and  _291
REMARK  116  A    between atoms: _290  and  _293
REMARK  117  A    between atoms: _293  and  _294
REMARK  118  A    between atoms: _294  and  _295
REMARK  119  A    between atoms: _295  and  _296
REMARK  120  A    between atoms: _305  and  _307
REMARK  121  A    between atoms: _307  and  _308
REMARK  122  A    between atoms: _307  and  _310
REMARK  123  A    between atoms: _310  and  _311
REMARK  124  A    between atoms: _316  and  _318
REMARK  125  A    between atoms: _318  and  _319
REMARK  126  A    between atoms: _318  and  _321
REMARK  127  A    between atoms: _321  and  _322
REMARK  128  A    between atoms: _325  and  _327
REMARK  129  A    between atoms: _327  and  _328
REMARK  130  A    between atoms: _330  and  _332
REMARK  131  A    between atoms: _332  and  _333
REMARK  132  A    between atoms: _332  and  _335
REMARK  133  A    between atoms: _335  and  _336
REMARK  134  A    between atoms: _346  and  _348
REMARK  135  A    between atoms: _348  and  _349
REMARK  136  A    between atoms: _348  and  _351
REMARK  137  A    between atoms: _351  and  _352
REMARK  138  A    between atoms: _353  and  _355
REMARK  139  A    between atoms: _355  and  _356
REMARK  140  A    between atoms: _355  and  _358
REMARK  141  A    between atoms: _358  and  _359
REMARK  142  A    between atoms: _362  and  _364
REMARK  143  A    between atoms: _364  and  _365
REMARK  144  A    between atoms: _367  and  _369
REMARK  145  A    between atoms: _369  and  _370
REMARK  146  A    between atoms: _369  and  _372
REMARK  147  A    between atoms: _372  and  _373
REMARK  148  A    between atoms: _378  and  _379
REMARK  149  A    between atoms: _381  and  _383
REMARK  150  A    between atoms: _383  and  _384
REMARK  151  A    between atoms: _383  and  _386
REMARK  152  A    between atoms: _386  and  _387
REMARK  153  A    between atoms: _387  and  _388
REMARK  154  A    between atoms: _388  and  _389
REMARK  155  A    between atoms: _398  and  _400
REMARK  156  A    between atoms: _400  and  _401
REMARK  157  A    between atoms: _400  and  _403
REMARK  158  A    between atoms: _403  and  _404
REMARK  159  A    between atoms: _407  and  _409
REMARK  160  A    between atoms: _409  and  _410
REMARK  161  A    between atoms: _409  and  _412
REMARK  162  A    between atoms: _412  and  _413
REMARK  163  A    between atoms: _413  and  _414
REMARK  164  A    between atoms: _414  and  _415
REMARK  165  A    between atoms: _415  and  _416
REMARK  166  A    between atoms: _420  and  _422
REMARK  167  A    between atoms: _422  and  _423
REMARK  168  A    between atoms: _425  and  _427
REMARK  169  A    between atoms: _427  and  _428
REMARK  170  A    between atoms: _431  and  _433
REMARK  171  A    between atoms: _433  and  _434
REMARK  172  A    between atoms: _433  and  _436
REMARK  173  A    between atoms: _436  and  _437
REMARK  174  A    between atoms: _442  and  _444
REMARK  175  A    between atoms: _444  and  _445
REMARK  176  A    between atoms: _448  and  _450
REMARK  177  A    between atoms: _450  and  _451
REMARK  178  A    between atoms: _454  and  _455
REMARK  179  A    between atoms: _460  and  _462
REMARK  180  A    between atoms: _462  and  _463
REMARK  181  A    between atoms: _462  and  _465
REMARK  182  A    between atoms: _465  and  _466
REMARK  183  A    between atoms: _469  and  _471
REMARK  184  A    between atoms: _471  and  _472
REMARK  185  A    between atoms: _471  and  _474
REMARK  186  A    between atoms: _474  and  _475
REMARK  187  A    between atoms: _485  and  _487
REMARK  188  A    between atoms: _487  and  _488
REMARK  189  A    between atoms: _487  and  _490
REMARK  190  A    between atoms: _490  and  _491
REMARK  191  A    between atoms: _497  and  _498
REMARK  192  A    between atoms: _503  and  _505
REMARK  193  A    between atoms: _505  and  _506
REMARK  194  A    between atoms: _505  and  _508
REMARK  195  A    between atoms: _508  and  _509
REMARK  196  A    between atoms: _514  and  _516
REMARK  197  A    between atoms: _516  and  _517
REMARK  198  A    between atoms: _516  and  _519
REMARK  199  A    between atoms: _522  and  _524
REMARK  200  A    between atoms: _524  and  _525
REMARK  201  A    between atoms: _524  and  _527
REMARK  202  A    between atoms: _527  and  _528
REMARK  203  A    between atoms: _528  and  _529
REMARK  204  A    between atoms: _535  and  _536
REMARK  205  A    between atoms: _541  and  _543
REMARK  206  A    between atoms: _543  and  _544
REMARK  207  A    between atoms: _543  and  _546
REMARK  208  A    between atoms: _546  and  _547
REMARK  209  A    between atoms: _550  and  _552
REMARK  210  A    between atoms: _552  and  _553
REMARK  211  A    between atoms: _552  and  _555
REMARK  212  A    between atoms: _555  and  _556
REMARK  213  A    between atoms: _558  and  _560
REMARK  214  A    between atoms: _560  and  _561
REMARK  215  A    between atoms: _560  and  _563
REMARK  216  A    between atoms: _563  and  _564
REMARK  217  A    between atoms: _569  and  _570
REMARK  218  A    between atoms: _572  and  _574
REMARK  219  A    between atoms: _574  and  _575
REMARK  220  A    between atoms: _574  and  _577
REMARK  221  A    between atoms: _577  and  _578
REMARK  222  A    between atoms: _588  and  _590
REMARK  223  A    between atoms: _590  and  _591
REMARK  224  A    between atoms: _593  and  _595
REMARK  225  A    between atoms: _595  and  _596
REMARK  226  A    between atoms: _599  and  _601
REMARK  227  A    between atoms: _601  and  _602
REMARK  228  A    between atoms: _601  and  _604
REMARK  229  A    between atoms: _604  and  _605
REMARK  230  A    between atoms: _610  and  _612
REMARK  231  A    between atoms: _612  and  _613
REMARK  232  A    between atoms: _616  and  _618
REMARK  233  A    between atoms: _618  and  _619
REMARK  234  A    between atoms: _622  and  _623
REMARK  235  A    between atoms: _628  and  _630
REMARK  236  A    between atoms: _630  and  _631
REMARK  237  A    between atoms: _630  and  _633
REMARK  238  A    between atoms: _633  and  _634
REMARK  239  A    between atoms: _637  and  _639
REMARK  240  A    between atoms: _639  and  _640
REMARK  241  A    between atoms: _639  and  _642
REMARK  242  A    between atoms: _642  and  _643
REMARK  243  A    between atoms: _653  and  _655
REMARK  244  A    between atoms: _655  and  _656
REMARK  245  A    between atoms: _655  and  _658
REMARK  246  A    between atoms: _658  and  _659
REMARK  247  A    between atoms: _664  and  _666
REMARK  248  A    between atoms: _666  and  _667
REMARK  249  A    between atoms: _666  and  _669
REMARK  250  A    between atoms: _669  and  _670
REMARK  251  A    between atoms: _673  and  _675
REMARK  252  A    between atoms: _675  and  _676
REMARK  253  A    between atoms: _675  and  _678
REMARK  254  A    between atoms: _678  and  _679
REMARK  255  A    between atoms: _679  and  _680
REMARK  256  A    between atoms: _683  and  _685
REMARK  257  A    between atoms: _685  and  _686
REMARK  258  A    between atoms: _685  and  _688
REMARK  259  A    between atoms: _688  and  _689
REMARK  260  A    between atoms: _689  and  _690
REMARK  261  A    between atoms: _690  and  _691
REMARK  262  A    between atoms: _691  and  _692
REMARK  263  A    between atoms: _696  and  _698
REMARK  264  A    between atoms: _698  and  _699
REMARK  265  A    between atoms: _698  and  _701
REMARK  266  A    between atoms: _701  and  _702
REMARK  267  A    between atoms: _707  and  _709
REMARK  268  A    between atoms: _709  and  _710
REMARK  269  A    between atoms: _709  and  _712
REMARK  270  A    between atoms: _712  and  _713
REMARK  271  A    between atoms: _713  and  _714
REMARK  272  A    between atoms: _714  and  _715
REMARK  273  A    between atoms: _724  and  _726
REMARK  274  A    between atoms: _726  and  _727
REMARK  275  A    between atoms: _726  and  _729
REMARK  276  A    between atoms: _729  and  _730
REMARK  277  A    between atoms: _733  and  _735
REMARK  278  A    between atoms: _735  and  _736
REMARK  279  A    between atoms: _735  and  _738
REMARK  280  A    between atoms: _741  and  _743
REMARK  281  A    between atoms: _743  and  _744
REMARK  282  A    between atoms: _743  and  _746
REMARK  283  A    between atoms: _746  and  _747
REMARK  284  A    between atoms: _747  and  _748
REMARK  285  A    between atoms: _754  and  _755
REMARK  286  A    between atoms: _760  and  _762
REMARK  287  A    between atoms: _762  and  _763
REMARK  288  A    between atoms: _762  and  _765
REMARK  289  A    between atoms: _765  and  _766
REMARK  290  A    between atoms: _769  and  _771
REMARK  291  A    between atoms: _771  and  _772
REMARK  292  A    between atoms: _771  and  _774
REMARK  293  A    between atoms: _774  and  _775
REMARK  294  A    between atoms: _775  and  _776
REMARK  295  A    between atoms: _776  and  _777
REMARK  296  A    between atoms: _786  and  _788
REMARK  297  A    between atoms: _788  and  _789
REMARK                            x       y       z     vdW  Elec       q    Type
REMARK                         _______ _______ _______ _____ _____    ______ ____
ROOT
ATOM      1  O   HOH     1      24.323  29.572 -14.996  0.00  0.00    +0.000 OA
ENDROOT
TORSDOF 0
REMARK  Name = ../refined-set-2016/3o4k/3o4k_pocket.pdb
REMARK  297 active torsions:
REMARK  status: ('A' for Active; 'I' for Inactive)
REMARK    1  A    between atoms: _1  and  _3
REMARK    2  A    between atoms: _3  and  _4
REMARK    3  A    between atoms: _3  and  _6
REMARK    4  A    between atoms: _6  and  _7
REMARK    5  A    between atoms: _7  and  _8
REMARK    6  A    between atoms: _8  and  _9
REMARK    7  A    between atoms: _18  and  _20
REMARK    8  A    between atoms: _20  and  _21
REMARK    9  A    between atoms: _20  and  _23
REMARK   10  A    between atoms: _23  and  _24
REMARK   11  A    between atoms: _29  and  _30
REMARK   12  A    between atoms: _32  and  _34
REMARK   13  A    between atoms: _34  and  _35
REMARK   14  A    between atoms: _34  and  _37
REMARK   15  A    between atoms: _37  and  _38
REMARK   16  A    between atoms: _48  and  _50
REMARK   17  A    between atoms: _50  and  _51
REMARK   18  A    between atoms: _50  and  _53
REMARK   19  A    between atoms: _53  and  _54
REMARK   20  A    between atoms: _54  and  _55
REMARK   21  A    between atoms: _55  and  _56
REMARK   22  A    between atoms: _65  and  _67
REMARK   23  A    between atoms: _67  and  _68
REMARK   24  A    between atoms: _67  and  _70
REMARK   25  A    between atoms: _70  and  _71
REMARK   26  A    between atoms: _73  and  _75
REMARK   27  A    between atoms: _75  and  _76
REMARK   28  A    between atoms: _75  and  _78
REMARK   29  A    between atoms: _78  and  _79
REMARK   30  A    between atoms: _84  and  _86
REMARK   31  A    between atoms: _86  and  _87
REMARK   32  A    between atoms: _86  and  _89
REMARK   33  A    between atoms: _89  and  _90
REMARK   34  A    between atoms: _95  and  _96
REMARK   35  A    between atoms: _98  and  _100
REMARK   36  A    between atoms: _100  and  _101
REMARK   37  A    between atoms: _100  and  _103
REMARK   38  A    between atoms: _103  and  _104
REMARK   39  A    between atoms: _104  and  _105
REMARK   40  A    between atoms: _108  and  _110
REMARK   41  A    between atoms: _110  and  _111
REMARK   42  A    between atoms: _110  and  _113
REMARK   43  A    between atoms: _116  and  _118
REMARK   44  A    between atoms: _118  and  _119
REMARK   45  A    between atoms: _118  and  _121
REMARK   46  A    between atoms: _121  and  _122
REMARK   47  A    between atoms: _122  and  _123
REMARK   48  A    between atoms: _123  and  _124
REMARK   49  A    between atoms: _124  and  _125
REMARK   50  A    between atoms: _129  and  _131
REMARK   51  A    between atoms: _131  and  _132
REMARK   52  A    between atoms: _131  and  _134
REMARK   53  A    between atoms: _134  and  _135
REMARK   54  A    between atoms: _140  and  _142
REMARK   55  A    between atoms: _142  and  _143
REMARK   56  A    between atoms: _142  and  _145
REMARK   57  A    between atoms: _145  and  _146
REMARK   58  A    between atoms: _151  and  _152
REMARK   59  A    between atoms: _154  and  _156
REMARK   60  A    between atoms: _156  and  _157
REMARK   61  A    between atoms: _156  and  _159
REMARK   62  A    between atoms: _159  and  _160
REMARK   63  A    between atoms: _160  and  _161
REMARK   64  A    between atoms: _161  and  _162
REMARK   65  A    between atoms: _171  and  _173
REMARK   66  A    between atoms: _173  and  _174
REMARK   67  A    between atoms: _178  and  _180
REMARK   68  A    between atoms: _180  and  _181
REMARK   69  A    between atoms: _180  and  _183
REMARK   70  A    between atoms: _183  and  _184
REMARK   71  A    between atoms: _186  and  _188
REMARK   72  A    between atoms: _188  and  _189
REMARK   73  A    between atoms: _188  and  _191
REMARK   74  A    between atoms: _191  and  _192
REMARK   75  A    between atoms: _192  and  _193
REMARK   76  A    between atoms: _196  and  _198
REMARK   77  A    between atoms: _198  and  _199
REMARK   78  A    between atoms: _198  and  _201
REMARK   79  A    between atoms: _201  and  _202
REMARK   80  A    between atoms: _202  and  _352
REMARK   81  A    between atoms: _203  and  _205
REMARK   82  A    between atoms: _205  and  _206
REMARK   83  A    between atoms: _205  and  _208
REMARK   84  A    between atoms: _208  and  _209
REMARK   85  A    between atoms: _209  and  _210
REMARK   86  A    between atoms: _210  and  _211
REMARK   87  A    between atoms: _220  and  _222
REMARK   88  A    between atoms: _222  and  _223
REMARK   89  A    between atoms: _222  and  _225
REMARK   90  A    between atoms: _225  and  _226
REMARK   91  A    between atoms: _226  and  _227
REMARK   92  A    between atoms: _230  and  _232
REMARK   93  A    between atoms: _232  and  _233
REMARK   94  A    between atoms: _232  and  _235
REMARK   95  A    between atoms: _235  and  _236
REMARK   96  A    between atoms: _236  and  _237
REMARK   97  A    between atoms: _237  and  _238
REMARK   98  A    between atoms: _247  and  _249
REMARK   99  A    between atoms: _249  and  _250
REMARK  100  A    between atoms: _249  and  _252
REMARK  101  A    between atoms: _252  and  _253
REMARK  102  A    between atoms: _255  and  _257
REMARK  103  A    between atoms: _257  and  _258
REMARK  104  A    between atoms: _257  and  _260
REMARK  105  A    between atoms: _260  and  _261
REMARK  106  A    between atoms: _266  and  _267
REMARK  107  A    between atoms: _269  and  _271
REMARK  108  A    between atoms: _271  and  _272
REMARK  109  A    between atoms: _271  and  _274
REMARK  110  A    between atoms: _274  and  _275
REMARK  111  A    between atoms: _280  and  _282
REMARK  112  A    between atoms: _282  and  _283
REMARK  113  A    between atoms: _282  and  _285
REMARK  114  A    between atoms: _288  and  _290
REMARK  115  A    between atoms: _290  and  _291
REMARK  116  A    between atoms: _290  and  _293
REMARK  117  A    between atoms: _293  and  _294
REMARK  118  A    between atoms: _294  and  _295
REMARK  119  A    between atoms: _295  and  _296
REMARK  120  A    between atoms: _305  and  _307
REMARK  121  A    between atoms: _307  and  _308
REMARK  122  A    between atoms: _307  and  _310
REMARK  123  A    between atoms: _310  and  _311
REMARK  124  A    between atoms: _316  and  _318
REMARK  125  A    between atoms: _318  and  _319
REMARK  126  A    between atoms: _318  and  _321
REMARK  127  A    between atoms: _321  and  _322
REMARK  128  A    between atoms: _325  and  _327
REMARK  129  A    between atoms: _327  and  _328
REMARK  130  A    between atoms: _330  and  _332
REMARK  131  A    between atoms: _332  and  _333
REMARK  132  A    between atoms: _332  and  _335
REMARK  133  A    between atoms: _335  and  _336
REMARK  134  A    between atoms: _346  and  _348
REMARK  135  A    between atoms: _348  and  _349
REMARK  136  A    between atoms: _348  and  _351
REMARK  137  A    between atoms: _351  and  _352
REMARK  138  A    between atoms: _353  and  _355
REMARK  139  A    between atoms: _355  and  _356
REMARK  140  A    between atoms: _355  and  _358
REMARK  141  A    between atoms: _358  and  _359
REMARK  142  A    between atoms: _362  and  _364
REMARK  143  A    between atoms: _364  and  _365
REMARK  144  A    between atoms: _367  and  _369
REMARK  145  A    between atoms: _369  and  _370
REMARK  146  A    between atoms: _369  and  _372
REMARK  147  A    between atoms: _372  and  _373
REMARK  148  A    between atoms: _378  and  _379
REMARK  149  A    between atoms: _381  and  _383
REMARK  150  A    between atoms: _383  and  _384
REMARK  151  A    between atoms: _383  and  _386
REMARK  152  A    between atoms: _386  and  _387
REMARK  153  A    between atoms: _387  and  _388
REMARK  154  A    between atoms: _388  and  _389
REMARK  155  A    between atoms: _398  and  _400
REMARK  156  A    between atoms: _400  and  _401
REMARK  157  A    between atoms: _400  and  _403
REMARK  158  A    between atoms: _403  and  _404
REMARK  159  A    between atoms: _407  and  _409
REMARK  160  A    between atoms: _409  and  _410
REMARK  161  A    between atoms: _409  and  _412
REMARK  162  A    between atoms: _412  and  _413
REMARK  163  A    between atoms: _413  and  _414
REMARK  164  A    between atoms: _414  and  _415
REMARK  165  A    between atoms: _415  and  _416
REMARK  166  A    between atoms: _420  and  _422
REMARK  167  A    between atoms: _422  and  _423
REMARK  168  A    between atoms: _425  and  _427
REMARK  169  A    between atoms: _427  and  _428
REMARK  170  A    between atoms: _431  and  _433
REMARK  171  A    between atoms: _433  and  _434
REMARK  172  A    between atoms: _433  and  _436
REMARK  173  A    between atoms: _436  and  _437
REMARK  174  A    between atoms: _442  and  _444
REMARK  175  A    between atoms: _444  and  _445
REMARK  176  A    between atoms: _448  and  _450
REMARK  177  A    between atoms: _450  and  _451
REMARK  178  A    between atoms: _454  and  _455
REMARK  179  A    between atoms: _460  and  _462
REMARK  180  A    between atoms: _462  and  _463
REMARK  181  A    between atoms: _462  and  _465
REMARK  182  A    between atoms: _465  and  _466
REMARK  183  A    between atoms: _469  and  _471
REMARK  184  A    between atoms: _471  and  _472
REMARK  185  A    between atoms: _471  and  _474
REMARK  186  A    between atoms: _474  and  _475
REMARK  187  A    between atoms: _485  and  _487
REMARK  188  A    between atoms: _487  and  _488
REMARK  189  A    between atoms: _487  and  _490
REMARK  190  A    between atoms: _490  and  _491
REMARK  191  A    between atoms: _497  and  _498
REMARK  192  A    between atoms: _503  and  _505
REMARK  193  A    between atoms: _505  and  _506
REMARK  194  A    between atoms: _505  and  _508
REMARK  195  A    between atoms: _508  and  _509
REMARK  196  A    between atoms: _514  and  _516
REMARK  197  A    between atoms: _516  and  _517
REMARK  198  A    between atoms: _516  and  _519
REMARK  199  A    between atoms: _522  and  _524
REMARK  200  A    between atoms: _524  and  _525
REMARK  201  A    between atoms: _524  and  _527
REMARK  202  A    between atoms: _527  and  _528
REMARK  203  A    between atoms: _528  and  _529
REMARK  204  A    between atoms: _535  and  _536
REMARK  205  A    between atoms: _541  and  _543
REMARK  206  A    between atoms: _543  and  _544
REMARK  207  A    between atoms: _543  and  _546
REMARK  208  A    between atoms: _546  and  _547
REMARK  209  A    between atoms: _550  and  _552
REMARK  210  A    between atoms: _552  and  _553
REMARK  211  A    between atoms: _552  and  _555
REMARK  212  A    between atoms: _555  and  _556
REMARK  213  A    between atoms: _558  and  _560
REMARK  214  A    between atoms: _560  and  _561
REMARK  215  A    between atoms: _560  and  _563
REMARK  216  A    between atoms: _563  and  _564
REMARK  217  A    between atoms: _569  and  _570
REMARK  218  A    between atoms: _572  and  _574
REMARK  219  A    between atoms: _574  and  _575
REMARK  220  A    between atoms: _574  and  _577
REMARK  221  A    between atoms: _577  and  _578
REMARK  222  A    between atoms: _588  and  _590
REMARK  223  A    between atoms: _590  and  _591
REMARK  224  A    between atoms: _593  and  _595
REMARK  225  A    between atoms: _595  and  _596
REMARK  226  A    between atoms: _599  and  _601
REMARK  227  A    between atoms: _601  and  _602
REMARK  228  A    between atoms: _601  and  _604
REMARK  229  A    between atoms: _604  and  _605
REMARK  230  A    between atoms: _610  and  _612
REMARK  231  A    between atoms: _612  and  _613
REMARK  232  A    between atoms: _616  and  _618
REMARK  233  A    between atoms: _618  and  _619
REMARK  234  A    between atoms: _622  and  _623
REMARK  235  A    between atoms: _628  and  _630
REMARK  236  A    between atoms: _630  and  _631
REMARK  237  A    between atoms: _630  and  _633
REMARK  238  A    between atoms: _633  and  _634
REMARK  239  A    between atoms: _637  and  _639
REMARK  240  A    between atoms: _639  and  _640
REMARK  241  A    between atoms: _639  and  _642
REMARK  242  A    between atoms: _642  and  _643
REMARK  243  A    between atoms: _653  and  _655
REMARK  244  A    between atoms: _655  and  _656
REMARK  245  A    between atoms: _655  and  _658
REMARK  246  A    between atoms: _658  and  _659
REMARK  247  A    between atoms: _664  and  _666
REMARK  248  A    between atoms: _666  and  _667
REMARK  249  A    between atoms: _666  and  _669
REMARK  250  A    between atoms: _669  and  _670
REMARK  251  A    between atoms: _673  and  _675
REMARK  252  A    between atoms: _675  and  _676
REMARK  253  A    between atoms: _675  and  _678
REMARK  254  A    between atoms: _678  and  _679
REMARK  255  A    between atoms: _679  and  _680
REMARK  256  A    between atoms: _683  and  _685
REMARK  257  A    between atoms: _685  and  _686
REMARK  258  A    between atoms: _685  and  _688
REMARK  259  A    between atoms: _688  and  _689
REMARK  260  A    between atoms: _689  and  _690
REMARK  261  A    between atoms: _690  and  _691
REMARK  262  A    between atoms: _691  and  _692
REMARK  263  A    between atoms: _696  and  _698
REMARK  264  A    between atoms: _698  and  _699
REMARK  265  A    between atoms: _698  and  _701
REMARK  266  A    between atoms: _701  and  _702
REMARK  267  A    between atoms: _707  and  _709
REMARK  268  A    between atoms: _709  and  _710
REMARK  269  A    between atoms: _709  and  _712
REMARK  270  A    between atoms: _712  and  _713
REMARK  271  A    between atoms: _713  and  _714
REMARK  272  A    between atoms: _714  and  _715
REMARK  273  A    between atoms: _724  and  _726
REMARK  274  A    between atoms: _726  and  _727
REMARK  275  A    between atoms: _726  and  _729
REMARK  276  A    between atoms: _729  and  _730
REMARK  277  A    between atoms: _733  and  _735
REMARK  278  A    between atoms: _735  and  _736
REMARK  279  A    between atoms: _735  and  _738
REMARK  280  A    between atoms: _741  and  _743
REMARK  281  A    between atoms: _743  and  _744
REMARK  282  A    between atoms: _743  and  _746
REMARK  283  A    between atoms: _746  and  _747
REMARK  284  A    between atoms: _747  and  _748
REMARK  285  A    between atoms: _754  and  _755
REMARK  286  A    between atoms: _760  and  _762
REMARK  287  A    between atoms: _762  and  _763
REMARK  288  A    between atoms: _762  and  _765
REMARK  289  A    between atoms: _765  and  _766
REMARK  290  A    between atoms: _769  and  _771
REMARK  291  A    between atoms: _771  and  _772
REMARK  292  A    between atoms: _771  and  _774
REMARK  293  A    between atoms: _774  and  _775
REMARK  294  A    between atoms: _775  and  _776
REMARK  295  A    between atoms: _776  and  _777
REMARK  296  A    between atoms: _786  and  _788
REMARK  297  A    between atoms: _788  and  _789
REMARK                            x       y       z     vdW  Elec       q    Type
REMARK                         _______ _______ _______ _____ _____    ______ ____
ROOT
ATOM      1  O   HOH     1      19.561  28.210 -20.238  0.00  0.00    +0.000 OA
ENDROOT
TORSDOF 0
