REMARK  Name = ../refined-set-2016/4qgd/4qgd_pocket.pdb
REMARK  135 active torsions:
REMARK  status: ('A' for Active; 'I' for Inactive)
REMARK    1  A    between atoms: _1  and  _5
REMARK    2  A    between atoms: _5  and  _6
REMARK    3  A    between atoms: _5  and  _8
REMARK    4  A    between atoms: _8  and  _9
REMARK    5  A    between atoms: _11  and  _13
REMARK    6  A    between atoms: _13  and  _14
REMARK    7  A    between atoms: _13  and  _16
REMARK    8  A    between atoms: _16  and  _17
REMARK    9  A    between atoms: _20  and  _22
REMARK   10  A    between atoms: _22  and  _23
REMARK   11  A    between atoms: _22  and  _25
REMARK   12  A    between atoms: _25  and  _26
REMARK   13  A    between atoms: _29  and  _31
REMARK   14  A    between atoms: _31  and  _32
REMARK   15  A    between atoms: _31  and  _34
REMARK   16  A    between atoms: _34  and  _35
REMARK   17  A    between atoms: _35  and  _36
REMARK   18  A    between atoms: _39  and  _41
REMARK   19  A    between atoms: _41  and  _42
REMARK   20  A    between atoms: _41  and  _44
REMARK   21  A    between atoms: _44  and  _45
REMARK   22  A    between atoms: _51  and  _53
REMARK   23  A    between atoms: _53  and  _54
REMARK   24  A    between atoms: _56  and  _58
REMARK   25  A    between atoms: _58  and  _59
REMARK   26  A    between atoms: _58  and  _61
REMARK   27  A    between atoms: _61  and  _62
REMARK   28  A    between atoms: _62  and  _63
REMARK   29  A    between atoms: _63  and  _64
REMARK   30  A    between atoms: _64  and  _65
REMARK   31  A    between atoms: _69  and  _71
REMARK   32  A    between atoms: _71  and  _72
REMARK   33  A    between atoms: _71  and  _74
REMARK   34  A    between atoms: _74  and  _75
REMARK   35  A    between atoms: _75  and  _76
REMARK   36  A    between atoms: _78  and  _80
REMARK   37  A    between atoms: _80  and  _81
REMARK   38  A    between atoms: _80  and  _83
REMARK   39  A    between atoms: _83  and  _84
REMARK   40  A    between atoms: _87  and  _89
REMARK   41  A    between atoms: _89  and  _90
REMARK   42  A    between atoms: _89  and  _92
REMARK   43  A    between atoms: _92  and  _93
REMARK   44  A    between atoms: _96  and  _98
REMARK   45  A    between atoms: _98  and  _99
REMARK   46  A    between atoms: _98  and  _101
REMARK   47  A    between atoms: _101  and  _102
REMARK   48  A    between atoms: _105  and  _107
REMARK   49  A    between atoms: _107  and  _108
REMARK   50  A    between atoms: _111  and  _113
REMARK   51  A    between atoms: _113  and  _114
REMARK   52  A    between atoms: _113  and  _116
REMARK   53  A    between atoms: _116  and  _117
REMARK   54  A    between atoms: _121  and  _122
REMARK   55  A    between atoms: _127  and  _129
REMARK   56  A    between atoms: _129  and  _130
REMARK   57  A    between atoms: _129  and  _132
REMARK   58  A    between atoms: _132  and  _133
REMARK   59  A    between atoms: _135  and  _137
REMARK   60  A    between atoms: _137  and  _138
REMARK   61  A    between atoms: _137  and  _140
REMARK   62  A    between atoms: _140  and  _141
REMARK   63  A    between atoms: _146  and  _147
REMARK   64  A    between atoms: _149  and  _151
REMARK   65  A    between atoms: _151  and  _152
REMARK   66  A    between atoms: _151  and  _154
REMARK   67  A    between atoms: _154  and  _155
REMARK   68  A    between atoms: _157  and  _159
REMARK   69  A    between atoms: _159  and  _160
REMARK   70  A    between atoms: _159  and  _162
REMARK   71  A    between atoms: _162  and  _163
REMARK   72  A    between atoms: _165  and  _167
REMARK   73  A    between atoms: _167  and  _168
REMARK   74  A    between atoms: _167  and  _170
REMARK   75  A    between atoms: _170  and  _171
REMARK   76  A    between atoms: _176  and  _177
REMARK   77  A    between atoms: _179  and  _181
REMARK   78  A    between atoms: _181  and  _182
REMARK   79  A    between atoms: _181  and  _184
REMARK   80  A    between atoms: _184  and  _185
REMARK   81  A    between atoms: _190  and  _191
REMARK   82  A    between atoms: _193  and  _195
REMARK   83  A    between atoms: _195  and  _196
REMARK   84  A    between atoms: _195  and  _198
REMARK   85  A    between atoms: _198  and  _199
REMARK   86  A    between atoms: _199  and  _239
REMARK   87  A    between atoms: _200  and  _202
REMARK   88  A    between atoms: _202  and  _203
REMARK   89  A    between atoms: _205  and  _207
REMARK   90  A    between atoms: _207  and  _208
REMARK   91  A    between atoms: _207  and  _210
REMARK   92  A    between atoms: _210  and  _211
REMARK   93  A    between atoms: _221  and  _223
REMARK   94  A    between atoms: _223  and  _224
REMARK   95  A    between atoms: _226  and  _228
REMARK   96  A    between atoms: _228  and  _229
REMARK   97  A    between atoms: _228  and  _231
REMARK   98  A    between atoms: _233  and  _235
REMARK   99  A    between atoms: _235  and  _236
REMARK  100  A    between atoms: _235  and  _238
REMARK  101  A    between atoms: _238  and  _239
REMARK  102  A    between atoms: _240  and  _242
REMARK  103  A    between atoms: _242  and  _243
REMARK  104  A    between atoms: _242  and  _245
REMARK  105  A    between atoms: _245  and  _246
REMARK  106  A    between atoms: _252  and  _254
REMARK  107  A    between atoms: _254  and  _255
REMARK  108  A    between atoms: _254  and  _257
REMARK  109  A    between atoms: _257  and  _258
REMARK  110  A    between atoms: _263  and  _265
REMARK  111  A    between atoms: _265  and  _266
REMARK  112  A    between atoms: _265  and  _268
REMARK  113  A    between atoms: _268  and  _269
REMARK  114  A    between atoms: _272  and  _274
REMARK  115  A    between atoms: _274  and  _275
REMARK  116  A    between atoms: _274  and  _277
REMARK  117  A    between atoms: _277  and  _278
REMARK  118  A    between atoms: _283  and  _284
REMARK  119  A    between atoms: _286  and  _288
REMARK  120  A    between atoms: _288  and  _289
REMARK  121  A    between atoms: _288  and  _291
REMARK  122  A    between atoms: _291  and  _292
REMARK  123  A    between atoms: _292  and  _293
REMARK  124  A    between atoms: _293  and  _294
REMARK  125  A    between atoms: _294  and  _295
REMARK  126  A    between atoms: _299  and  _301
REMARK  127  A    between atoms: _301  and  _302
REMARK  128  A    between atoms: _301  and  _304
REMARK  129  A    between atoms: _304  and  _305
REMARK  130  A    between atoms: _308  and  _310
REMARK  131  A    between atoms: _310  and  _311
REMARK  132  A    between atoms: _314  and  _316
REMARK  133  A    between atoms: _316  and  _317
REMARK  134  A    between atoms: _316  and  _319
REMARK  135  A    between atoms: _319  and  _320
REMARK                            x       y       z     vdW  Elec       q    Type
REMARK                         _______ _______ _______ _____ _____    ______ ____
ROOT
ATOM      1  CA  PHE A   5     -17.306   9.136   0.779  0.00  0.00    +0.153 C 
ENDROOT
BRANCH   1   3
ATOM      2  C   GLU A   4     -17.256  11.589   0.791  0.00  0.00    +0.241 C 
ATOM      3  N   PHE A   5     -16.977  10.416   1.374  0.00  0.00    -0.297 N 
ATOM      4  H   PHE A   5     -16.501  10.424   2.299  0.00  0.00    +0.150 HD
ATOM      5  O   GLU A   4     -17.742  11.668  -0.304  0.00  0.00    -0.273 OA
BRANCH   2   6
ATOM      6  CA  GLU A   4     -16.875  12.880   1.496  0.00  0.00    +0.149 C 
BRANCH   6   8
ATOM      7  C   LEU A   3     -18.498  12.753   3.316  0.00  0.00    +0.241 C 
ATOM      8  N   GLU A   4     -17.223  12.868   2.911  0.00  0.00    -0.297 N 
ATOM      9  H   GLU A   4     -16.468  12.950   3.622  0.00  0.00    +0.150 HD
ATOM     10  O   LEU A   3     -19.459  12.724   2.522  0.00  0.00    -0.273 OA
BRANCH   7  11
ATOM     11  CA  LEU A   3     -18.747  12.589   4.846  0.00  0.00    +0.149 C 
BRANCH  11  13
ATOM     12  C   LEU A   2     -17.789  10.367   5.246  0.00  0.00    +0.241 C 
ATOM     13  N   LEU A   3     -17.878  11.668   5.576  0.00  0.00    -0.297 N 
ATOM     14  H   LEU A   3     -17.313  12.028   6.372  0.00  0.00    +0.150 HD
ATOM     15  O   LEU A   2     -18.499   9.836   4.398  0.00  0.00    -0.273 OA
BRANCH  12  16
ATOM     16  CA  LEU A   2     -16.747   9.546   5.975  0.00  0.00    +0.148 C 
BRANCH  16  18
ATOM     17  C   SER A   1     -14.785  10.610   4.951  0.00  0.00    +0.205 C 
ATOM     18  N   LEU A   2     -15.424  10.161   6.032  0.00  0.00    -0.300 N 
ATOM     19  H   LEU A   2     -14.959  10.253   6.958  0.00  0.00    +0.150 HD
ATOM     20  O   SER A   1     -15.237  10.528   3.823  0.00  0.00    -0.277 OA
BRANCH  17  21
ATOM     21  CA  SER A   1     -13.432  11.219   5.174  0.00  0.00    +0.043 C 
BRANCH  21  22
ATOM     22  N   SER A   1     -12.696  11.225   3.874  0.00  0.00    +0.389 N 
ATOM     23  H1  SER A   1     -11.755  11.645   4.012  0.00  0.00    -0.088 HD
ATOM     24  H2  SER A   1     -12.595  10.249   3.530  0.00  0.00    -0.088 HD
ATOM     25  H3  SER A   1     -13.228  11.786   3.178  0.00  0.00    -0.088 HD
ENDBRANCH  21  22
BRANCH  21  26
ATOM     26  CB  SER A   1     -13.618  12.646   5.704  0.00  0.00    +0.124 C 
BRANCH  26  27
ATOM     27  OG  SER A   1     -14.425  13.410   4.833  0.00  0.00    -0.384 OA
ATOM     28  H   SER A   1     -14.529  14.324   5.198  0.00  0.00    +0.210 HD
ENDBRANCH  26  27
ENDBRANCH  21  26
ENDBRANCH  17  21
ENDBRANCH  16  18
BRANCH  16  29
ATOM     29  CB  LEU A   2     -17.235   9.168   7.377  0.00  0.00    +0.029 C 
BRANCH  29  30
ATOM     30  CG  LEU A   2     -18.005   7.826   7.441  0.00  0.00    +0.002 C 
ATOM     31  CD2 LEU A   2     -17.779   7.141   8.775  0.00  0.00    +0.000 C 
ATOM     32  CD1 LEU A   2     -17.672   6.821   6.331  0.00  0.00    +0.000 C 
ENDBRANCH  29  30
ENDBRANCH  16  29
ENDBRANCH  12  16
ENDBRANCH  11  13
BRANCH  11  33
ATOM     33  CB  LEU A   3     -18.827  13.964   5.576  0.00  0.00    +0.029 C 
BRANCH  33  34
ATOM     34  CG  LEU A   3     -19.708  13.768   6.841  0.00  0.00    +0.002 C 
ATOM     35  CD2 LEU A   3     -19.250  14.539   8.081  0.00  0.00    +0.000 C 
ATOM     36  CD1 LEU A   3     -21.162  14.101   6.500  0.00  0.00    +0.000 C 
ENDBRANCH  33  34
ENDBRANCH  11  33
ENDBRANCH   7  11
ENDBRANCH   6   8
BRANCH   6  37
ATOM     37  CB  GLU A   4     -15.367  12.895   1.305  0.00  0.00    +0.041 C 
BRANCH  37  38
ATOM     38  CG  GLU A   4     -14.735  14.183   1.582  0.00  0.00    +0.116 C 
BRANCH  38  39
ATOM     39  CD  GLU A   4     -13.308  14.142   1.149  0.00  0.00    +0.365 C 
ATOM     40  OE2 GLU A   4     -12.559  13.339   1.733  0.00  0.00    -0.246 OA
ATOM     41  OE1 GLU A   4     -12.938  14.938   0.256  0.00  0.00    -0.246 OA
ENDBRANCH  38  39
ENDBRANCH  37  38
ENDBRANCH   6  37
ENDBRANCH   2   6
ENDBRANCH   1   3
BRANCH   1  42
ATOM     42  C   PHE A   5     -18.853   9.091   0.641  0.00  0.00    +0.241 C 
ATOM     43  N   GLY A   6     -19.564   9.683   1.582  0.00  0.00    -0.295 N 
ATOM     44  H   GLY A   6     -19.097  10.157   2.381  0.00  0.00    +0.150 HD
ATOM     45  O   PHE A   5     -19.375   8.471  -0.274  0.00  0.00    -0.273 OA
BRANCH  43  46
ATOM     46  CA  GLY A   6     -21.031   9.659   1.477  0.00  0.00    +0.176 C 
BRANCH  46  47
ATOM     47  C   GLY A   6     -21.512  10.448   0.284  0.00  0.00    +0.243 C 
ATOM     48  N   LYS A   7     -20.843  11.579   0.038  0.00  0.00    -0.297 N 
ATOM     49  H   LYS A   7     -20.089  11.869   0.693  0.00  0.00    +0.150 HD
ATOM     50  O   GLY A   6     -22.503  10.070  -0.386  0.00  0.00    -0.273 OA
BRANCH  48  51
ATOM     51  CA  LYS A   7     -21.143  12.448  -1.154  0.00  0.00    +0.149 C 
BRANCH  51  52
ATOM     52  C   LYS A   7     -20.796  11.783  -2.493  0.00  0.00    +0.241 C 
ATOM     53  N   MET A   8     -19.670  11.105  -2.506  0.00  0.00    -0.297 N 
ATOM     54  H   MET A   8     -19.082  11.098  -1.648  0.00  0.00    +0.150 HD
ATOM     55  O   LYS A   7     -21.563  11.865  -3.466  0.00  0.00    -0.273 OA
BRANCH  53  56
ATOM     56  CA  MET A   8     -19.225  10.382  -3.642  0.00  0.00    +0.149 C 
BRANCH  56  57
ATOM     57  C   MET A   8     -20.252   9.280  -3.951  0.00  0.00    +0.241 C 
ATOM     58  N   ILE A   9     -20.749   8.573  -2.917  0.00  0.00    -0.297 N 
ATOM     59  H   ILE A   9     -20.417   8.767  -1.951  0.00  0.00    +0.150 HD
ATOM     60  O   MET A   8     -20.598   9.081  -5.132  0.00  0.00    -0.273 OA
BRANCH  58  61
ATOM     61  CA  ILE A   9     -21.776   7.510  -3.151  0.00  0.00    +0.149 C 
BRANCH  61  62
ATOM     62  C   ILE A   9     -23.099   8.097  -3.695  0.00  0.00    +0.241 C 
ATOM     63  N   LEU A  10     -23.548   9.223  -3.120  0.00  0.00    -0.298 N 
ATOM     64  H   LEU A  10     -23.030   9.639  -2.320  0.00  0.00    +0.150 HD
ATOM     65  O   ILE A   9     -23.715   7.516  -4.595  0.00  0.00    -0.273 OA
BRANCH  63  66
ATOM     66  CA  LEU A  10     -24.770   9.870  -3.617  0.00  0.00    +0.137 C 
BRANCH  66  67
ATOM     67  C   LEU A  10     -24.644  10.322  -5.031  0.00  0.00    +0.227 C 
ATOM     68  O   LEU A  10     -25.545  10.154  -5.797  0.00  0.00    -0.286 OA
ENDBRANCH  66  67
BRANCH  66  69
ATOM     69  CB  LEU A  10     -25.119  11.080  -2.714  0.00  0.00    +0.028 C 
BRANCH  69  70
ATOM     70  CG  LEU A  10     -26.362  11.941  -3.078  0.00  0.00    +0.002 C 
ATOM     71  CD2 LEU A  10     -26.491  13.116  -2.120  0.00  0.00    +0.000 C 
ATOM     72  CD1 LEU A  10     -27.642  11.140  -3.041  0.00  0.00    +0.000 C 
ENDBRANCH  69  70
ENDBRANCH  66  69
ENDBRANCH  63  66
ENDBRANCH  61  62
BRANCH  61  73
ATOM     73  CB  ILE A   9     -22.084   6.735  -1.891  0.00  0.00    +0.027 C 
ATOM     74  CG2 ILE A   9     -23.321   5.817  -2.053  0.00  0.00    +0.002 C 
BRANCH  73  75
ATOM     75  CG1 ILE A   9     -20.847   5.932  -1.472  0.00  0.00    +0.002 C 
ATOM     76  CD1 ILE A   9     -20.932   5.423  -0.032  0.00  0.00    +0.000 C 
ENDBRANCH  73  75
ENDBRANCH  61  73
ENDBRANCH  58  61
ENDBRANCH  56  57
BRANCH  56  77
ATOM     77  CB  MET A   8     -17.832   9.785  -3.354  0.00  0.00    +0.041 C 
BRANCH  77  78
ATOM     78  CG  MET A   8     -17.128   9.245  -4.559  0.00  0.00    +0.060 C 
BRANCH  78  79
ATOM     79  SD  MET A   8     -15.585   8.377  -4.177  0.00  0.00    -0.139 S 
ATOM     80  CE  MET A   8     -14.389   9.702  -4.019  0.00  0.00    +0.069 C 
ENDBRANCH  78  79
ENDBRANCH  77  78
ENDBRANCH  56  77
ENDBRANCH  53  56
ENDBRANCH  51  52
BRANCH  51  81
ATOM     81  CB  LYS A   7     -20.533  13.832  -0.998  0.00  0.00    +0.029 C 
BRANCH  81  82
ATOM     82  CG  LYS A   7     -20.784  14.807  -2.116  0.00  0.00    +0.000 C 
BRANCH  82  83
ATOM     83  CD  LYS A   7     -21.025  16.227  -1.566  0.00  0.00    -0.024 C 
BRANCH  83  84
ATOM     84  CE  LYS A   7     -20.249  16.479  -0.282  0.00  0.00    -0.086 C 
BRANCH  84  85
ATOM     85  NZ  LYS A   7     -18.782  16.291  -0.497  0.00  0.00    +0.380 N 
ATOM     86  HZ1 LYS A   7     -18.277  16.469   0.394  0.00  0.00    -0.089 HD
ATOM     87  HZ2 LYS A   7     -18.601  15.316  -0.811  0.00  0.00    -0.089 HD
ATOM     88  HZ3 LYS A   7     -18.451  16.957  -1.224  0.00  0.00    -0.089 HD
ENDBRANCH  84  85
ENDBRANCH  83  84
ENDBRANCH  82  83
ENDBRANCH  81  82
ENDBRANCH  51  81
ENDBRANCH  48  51
ENDBRANCH  46  47
ENDBRANCH  43  46
ENDBRANCH   1  42
BRANCH   1  89
ATOM     89  CB  PHE A   5     -16.857   8.007   1.753  0.00  0.00    +0.055 C 
BRANCH  89  90
ATOM     90  CG  PHE A   5     -17.101   6.567   1.240  0.00  0.00    -0.020 A 
ATOM     91  CD2 PHE A   5     -17.438   5.522   2.148  0.00  0.00    -0.004 A 
ATOM     92  CE2 PHE A   5     -17.629   4.219   1.729  0.00  0.00    -0.000 A 
ATOM     93  CZ  PHE A   5     -17.502   3.896   0.345  0.00  0.00    -0.000 A 
ATOM     94  CE1 PHE A   5     -17.198   4.939  -0.596  0.00  0.00    -0.000 A 
ATOM     95  CD1 PHE A   5     -17.021   6.263  -0.172  0.00  0.00    -0.004 A 
ENDBRANCH  89  90
ENDBRANCH   1  89
TORSDOF 43
REMARK  Name = ../refined-set-2016/4qgd/4qgd_pocket.pdb
REMARK  135 active torsions:
REMARK  status: ('A' for Active; 'I' for Inactive)
REMARK    1  A    between atoms: _1  and  _5
REMARK    2  A    between atoms: _5  and  _6
REMARK    3  A    between atoms: _5  and  _8
REMARK    4  A    between atoms: _8  and  _9
REMARK    5  A    between atoms: _11  and  _13
REMARK    6  A    between atoms: _13  and  _14
REMARK    7  A    between atoms: _13  and  _16
REMARK    8  A    between atoms: _16  and  _17
REMARK    9  A    between atoms: _20  and  _22
REMARK   10  A    between atoms: _22  and  _23
REMARK   11  A    between atoms: _22  and  _25
REMARK   12  A    between atoms: _25  and  _26
REMARK   13  A    between atoms: _29  and  _31
REMARK   14  A    between atoms: _31  and  _32
REMARK   15  A    between atoms: _31  and  _34
REMARK   16  A    between atoms: _34  and  _35
REMARK   17  A    between atoms: _35  and  _36
REMARK   18  A    between atoms: _39  and  _41
REMARK   19  A    between atoms: _41  and  _42
REMARK   20  A    between atoms: _41  and  _44
REMARK   21  A    between atoms: _44  and  _45
REMARK   22  A    between atoms: _51  and  _53
REMARK   23  A    between atoms: _53  and  _54
REMARK   24  A    between atoms: _56  and  _58
REMARK   25  A    between atoms: _58  and  _59
REMARK   26  A    between atoms: _58  and  _61
REMARK   27  A    between atoms: _61  and  _62
REMARK   28  A    between atoms: _62  and  _63
REMARK   29  A    between atoms: _63  and  _64
REMARK   30  A    between atoms: _64  and  _65
REMARK   31  A    between atoms: _69  and  _71
REMARK   32  A    between atoms: _71  and  _72
REMARK   33  A    between atoms: _71  and  _74
REMARK   34  A    between atoms: _74  and  _75
REMARK   35  A    between atoms: _75  and  _76
REMARK   36  A    between atoms: _78  and  _80
REMARK   37  A    between atoms: _80  and  _81
REMARK   38  A    between atoms: _80  and  _83
REMARK   39  A    between atoms: _83  and  _84
REMARK   40  A    between atoms: _87  and  _89
REMARK   41  A    between atoms: _89  and  _90
REMARK   42  A    between atoms: _89  and  _92
REMARK   43  A    between atoms: _92  and  _93
REMARK   44  A    between atoms: _96  and  _98
REMARK   45  A    between atoms: _98  and  _99
REMARK   46  A    between atoms: _98  and  _101
REMARK   47  A    between atoms: _101  and  _102
REMARK   48  A    between atoms: _105  and  _107
REMARK   49  A    between atoms: _107  and  _108
REMARK   50  A    between atoms: _111  and  _113
REMARK   51  A    between atoms: _113  and  _114
REMARK   52  A    between atoms: _113  and  _116
REMARK   53  A    between atoms: _116  and  _117
REMARK   54  A    between atoms: _121  and  _122
REMARK   55  A    between atoms: _127  and  _129
REMARK   56  A    between atoms: _129  and  _130
REMARK   57  A    between atoms: _129  and  _132
REMARK   58  A    between atoms: _132  and  _133
REMARK   59  A    between atoms: _135  and  _137
REMARK   60  A    between atoms: _137  and  _138
REMARK   61  A    between atoms: _137  and  _140
REMARK   62  A    between atoms: _140  and  _141
REMARK   63  A    between atoms: _146  and  _147
REMARK   64  A    between atoms: _149  and  _151
REMARK   65  A    between atoms: _151  and  _152
REMARK   66  A    between atoms: _151  and  _154
REMARK   67  A    between atoms: _154  and  _155
REMARK   68  A    between atoms: _157  and  _159
REMARK   69  A    between atoms: _159  and  _160
REMARK   70  A    between atoms: _159  and  _162
REMARK   71  A    between atoms: _162  and  _163
REMARK   72  A    between atoms: _165  and  _167
REMARK   73  A    between atoms: _167  and  _168
REMARK   74  A    between atoms: _167  and  _170
REMARK   75  A    between atoms: _170  and  _171
REMARK   76  A    between atoms: _176  and  _177
REMARK   77  A    between atoms: _179  and  _181
REMARK   78  A    between atoms: _181  and  _182
REMARK   79  A    between atoms: _181  and  _184
REMARK   80  A    between atoms: _184  and  _185
REMARK   81  A    between atoms: _190  and  _191
REMARK   82  A    between atoms: _193  and  _195
REMARK   83  A    between atoms: _195  and  _196
REMARK   84  A    between atoms: _195  and  _198
REMARK   85  A    between atoms: _198  and  _199
REMARK   86  A    between atoms: _199  and  _239
REMARK   87  A    between atoms: _200  and  _202
REMARK   88  A    between atoms: _202  and  _203
REMARK   89  A    between atoms: _205  and  _207
REMARK   90  A    between atoms: _207  and  _208
REMARK   91  A    between atoms: _207  and  _210
REMARK   92  A    between atoms: _210  and  _211
REMARK   93  A    between atoms: _221  and  _223
REMARK   94  A    between atoms: _223  and  _224
REMARK   95  A    between atoms: _226  and  _228
REMARK   96  A    between atoms: _228  and  _229
REMARK   97  A    between atoms: _228  and  _231
REMARK   98  A    between atoms: _233  and  _235
REMARK   99  A    between atoms: _235  and  _236
REMARK  100  A    between atoms: _235  and  _238
REMARK  101  A    between atoms: _238  and  _239
REMARK  102  A    between atoms: _240  and  _242
REMARK  103  A    between atoms: _242  and  _243
REMARK  104  A    between atoms: _242  and  _245
REMARK  105  A    between atoms: _245  and  _246
REMARK  106  A    between atoms: _252  and  _254
REMARK  107  A    between atoms: _254  and  _255
REMARK  108  A    between atoms: _254  and  _257
REMARK  109  A    between atoms: _257  and  _258
REMARK  110  A    between atoms: _263  and  _265
REMARK  111  A    between atoms: _265  and  _266
REMARK  112  A    between atoms: _265  and  _268
REMARK  113  A    between atoms: _268  and  _269
REMARK  114  A    between atoms: _272  and  _274
REMARK  115  A    between atoms: _274  and  _275
REMARK  116  A    between atoms: _274  and  _277
REMARK  117  A    between atoms: _277  and  _278
REMARK  118  A    between atoms: _283  and  _284
REMARK  119  A    between atoms: _286  and  _288
REMARK  120  A    between atoms: _288  and  _289
REMARK  121  A    between atoms: _288  and  _291
REMARK  122  A    between atoms: _291  and  _292
REMARK  123  A    between atoms: _292  and  _293
REMARK  124  A    between atoms: _293  and  _294
REMARK  125  A    between atoms: _294  and  _295
REMARK  126  A    between atoms: _299  and  _301
REMARK  127  A    between atoms: _301  and  _302
REMARK  128  A    between atoms: _301  and  _304
REMARK  129  A    between atoms: _304  and  _305
REMARK  130  A    between atoms: _308  and  _310
REMARK  131  A    between atoms: _310  and  _311
REMARK  132  A    between atoms: _314  and  _316
REMARK  133  A    between atoms: _316  and  _317
REMARK  134  A    between atoms: _316  and  _319
REMARK  135  A    between atoms: _319  and  _320
REMARK                            x       y       z     vdW  Elec       q    Type
REMARK                         _______ _______ _______ _____ _____    ______ ____
ROOT
ATOM      1  CA  TYR A   6     -25.411   1.590   2.446  0.00  0.00    +0.153 C 
ENDROOT
BRANCH   1   2
ATOM      2  C   TYR A   6     -24.746   1.508   3.837  0.00  0.00    +0.241 C 
ATOM      3  N   SER A   7     -25.198   2.264   4.812  0.00  0.00    -0.295 N 
ATOM      4  H   SER A   7     -26.055   2.834   4.662  0.00  0.00    +0.150 HD
ATOM      5  O   TYR A   6     -23.816   0.790   3.988  0.00  0.00    -0.273 OA
BRANCH   3   6
ATOM      6  CA  SER A   7     -24.524   2.316   6.089  0.00  0.00    +0.178 C 
BRANCH   6   7
ATOM      7  C   SER A   7     -24.684   1.069   6.916  0.00  0.00    +0.243 C 
ATOM      8  O   SER A   7     -23.934   0.829   7.798  0.00  0.00    -0.273 OA
ATOM      9  N   SER A   8     -25.762   0.349   6.683  0.00  0.00    -0.295 N 
ATOM     10  H   SER A   8     -26.449   0.665   5.970  0.00  0.00    +0.150 HD
BRANCH   9  11
ATOM     11  CA  SER A   8     -25.996  -0.872   7.408  0.00  0.00    +0.178 C 
BRANCH  11  12
ATOM     12  C   SER A   8     -26.334  -2.126   6.580  0.00  0.00    +0.243 C 
ATOM     13  O   SER A   8     -27.031  -2.967   7.052  0.00  0.00    -0.273 OA
ATOM     14  N   TYR A   9     -25.845  -2.187   5.352  0.00  0.00    -0.298 N 
ATOM     15  H   TYR A   9     -25.107  -1.508   5.077  0.00  0.00    +0.150 HD
BRANCH  14  16
ATOM     16  CA  TYR A   9     -26.283  -3.139   4.392  0.00  0.00    +0.141 C 
BRANCH  16  17
ATOM     17  C   TYR A   9     -25.483  -4.420   4.475  0.00  0.00    +0.227 C 
ATOM     18  O   TYR A   9     -24.290  -4.439   4.377  0.00  0.00    -0.286 OA
ENDBRANCH  16  17
BRANCH  16  19
ATOM     19  CB  TYR A   9     -26.222  -2.514   2.998  0.00  0.00    +0.054 C 
BRANCH  19  20
ATOM     20  CG  TYR A   9     -26.719  -3.295   1.818  0.00  0.00    -0.020 A 
ATOM     21  CD2 TYR A   9     -26.010  -4.347   1.297  0.00  0.00    -0.001 A 
ATOM     22  CE2 TYR A   9     -26.463  -5.016   0.183  0.00  0.00    +0.036 A 
ATOM     23  CZ  TYR A   9     -27.677  -4.620  -0.415  0.00  0.00    +0.134 A 
ATOM     24  CE1 TYR A   9     -28.340  -3.565   0.081  0.00  0.00    +0.036 A 
ATOM     25  CD1 TYR A   9     -27.874  -2.921   1.179  0.00  0.00    -0.001 A 
BRANCH  23  26
ATOM     26  OH  TYR A   9     -28.159  -5.248  -1.489  0.00  0.00    -0.506 OA
ATOM     27  HH  TYR A   9     -27.559  -5.998  -1.728  0.00  0.00    +0.292 HD
ENDBRANCH  23  26
ENDBRANCH  19  20
ENDBRANCH  16  19
ENDBRANCH  14  16
ENDBRANCH  11  12
BRANCH  11  28
ATOM     28  CB  SER A   8     -27.011  -0.647   8.508  0.00  0.00    +0.166 C 
BRANCH  28  29
ATOM     29  OG  SER A   8     -28.235  -0.495   7.961  0.00  0.00    -0.380 OA
ATOM     30  H   SER A   8     -28.472  -1.311   7.453  0.00  0.00    +0.211 HD
ENDBRANCH  28  29
ENDBRANCH  11  28
ENDBRANCH   9  11
ENDBRANCH   6   7
BRANCH   6  31
ATOM     31  CB  SER A   7     -24.888   3.531   6.882  0.00  0.00    +0.166 C 
BRANCH  31  32
ATOM     32  OG  SER A   7     -26.242   3.523   7.114  0.00  0.00    -0.380 OA
ATOM     33  H   SER A   7     -26.490   4.325   7.639  0.00  0.00    +0.211 HD
ENDBRANCH  31  32
ENDBRANCH   6  31
ENDBRANCH   3   6
ENDBRANCH   1   2
BRANCH   1  35
ATOM     34  C   SER A   5     -27.749   1.878   1.992  0.00  0.00    +0.243 C 
ATOM     35  N   TYR A   6     -26.591   2.388   2.343  0.00  0.00    -0.297 N 
ATOM     36  H   TYR A   6     -26.531   3.405   2.553  0.00  0.00    +0.150 HD
ATOM     37  O   SER A   5     -27.897   0.705   1.700  0.00  0.00    -0.273 OA
BRANCH  34  38
ATOM     38  CA  SER A   5     -28.951   2.823   1.924  0.00  0.00    +0.178 C 
BRANCH  38  41
ATOM     39  C   PRO A   4     -29.204   3.487   4.278  0.00  0.00    +0.241 C 
ATOM     40  O   PRO A   4     -29.271   2.302   4.651  0.00  0.00    -0.273 OA
ATOM     41  N   SER A   5     -29.046   3.847   2.985  0.00  0.00    -0.295 N 
ATOM     42  H   SER A   5     -28.991   4.855   2.734  0.00  0.00    +0.150 HD
BRANCH  39  45
ATOM     43  C   ILE A   3     -28.483   6.918   4.805  0.00  0.00    +0.244 C 
ATOM     44  N   PRO A   4     -29.349   5.933   4.784  0.00  0.00    -0.272 N 
ATOM     45  CA  PRO A   4     -29.330   4.598   5.314  0.00  0.00    +0.152 C 
ATOM     46  CB  PRO A   4     -30.743   4.484   5.935  0.00  0.00    +0.031 C 
ATOM     47  CG  PRO A   4     -31.587   5.156   4.891  0.00  0.00    +0.024 C 
ATOM     48  CD  PRO A   4     -30.750   6.336   4.416  0.00  0.00    +0.094 C 
ATOM     49  O   ILE A   3     -28.834   8.026   4.489  0.00  0.00    -0.273 OA
BRANCH  43  50
ATOM     50  CA  ILE A   3     -26.996   6.674   5.131  0.00  0.00    +0.149 C 
BRANCH  50  52
ATOM     51  C   ALA A   2     -25.634   6.110   3.169  0.00  0.00    +0.241 C 
ATOM     52  N   ILE A   3     -26.189   6.999   3.967  0.00  0.00    -0.297 N 
ATOM     53  H   ILE A   3     -26.039   8.005   3.749  0.00  0.00    +0.150 HD
ATOM     54  O   ALA A   2     -25.676   4.925   3.387  0.00  0.00    -0.273 OA
BRANCH  51  55
ATOM     55  CA  ALA A   2     -25.030   6.631   1.886  0.00  0.00    +0.149 C 
ATOM     56  CB  ALA A   2     -23.634   7.209   2.132  0.00  0.00    +0.031 C 
BRANCH  55  59
ATOM     57  C   LEU A   1     -27.185   7.439   1.004  0.00  0.00    +0.238 C 
ATOM     58  O   LEU A   1     -27.811   6.413   1.339  0.00  0.00    -0.274 OA
ATOM     59  N   ALA A   2     -25.874   7.638   1.253  0.00  0.00    -0.297 N 
ATOM     60  H   ALA A   2     -25.448   8.547   0.982  0.00  0.00    +0.150 HD
BRANCH  57  61
ATOM     61  CA  LEU A   1     -27.943   8.591   0.356  0.00  0.00    +0.145 C 
BRANCH  61  62
ATOM     62  N   LEU A   1     -28.669   8.070  -0.793  0.00  0.00    -0.238 NA
ATOM     63  H   LEU A   1     -29.709   8.065  -0.773  0.00  0.00    +0.142 HD
ENDBRANCH  61  62
BRANCH  61  64
ATOM     64  CB  LEU A   1     -28.927   9.164   1.348  0.00  0.00    +0.026 C 
BRANCH  64  65
ATOM     65  CG  LEU A   1     -29.792  10.295   0.793  0.00  0.00    +0.002 C 
ATOM     66  CD2 LEU A   1     -30.855  10.651   1.845  0.00  0.00    +0.000 C 
ATOM     67  CD1 LEU A   1     -28.886  11.462   0.439  0.00  0.00    +0.000 C 
ENDBRANCH  64  65
ENDBRANCH  61  64
ENDBRANCH  57  61
ENDBRANCH  55  59
ENDBRANCH  51  55
ENDBRANCH  50  52
BRANCH  50  68
ATOM     68  CB  ILE A   3     -26.627   7.577   6.325  0.00  0.00    +0.027 C 
ATOM     69  CG2 ILE A   3     -27.425   7.219   7.536  0.00  0.00    +0.002 C 
BRANCH  68  70
ATOM     70  CG1 ILE A   3     -25.179   7.398   6.711  0.00  0.00    +0.002 C 
ATOM     71  CD1 ILE A   3     -24.763   8.190   7.889  0.00  0.00    +0.000 C 
ENDBRANCH  68  70
ENDBRANCH  50  68
ENDBRANCH  43  50
ENDBRANCH  39  45
ENDBRANCH  38  41
BRANCH  38  72
ATOM     72  CB  SER A   5     -28.991   3.422   0.536  0.00  0.00    +0.166 C 
BRANCH  72  73
ATOM     73  OG  SER A   5     -30.167   4.192   0.429  0.00  0.00    -0.380 OA
ATOM     74  H   SER A   5     -30.955   3.611   0.574  0.00  0.00    +0.211 HD
ENDBRANCH  72  73
ENDBRANCH  38  72
ENDBRANCH  34  38
ENDBRANCH   1  35
BRANCH   1  75
ATOM     75  CB  TYR A   6     -24.406   2.089   1.443  0.00  0.00    +0.055 C 
BRANCH  75  76
ATOM     76  CG  TYR A   6     -24.828   1.972   0.024  0.00  0.00    -0.020 A 
ATOM     77  CD2 TYR A   6     -24.695   0.807  -0.639  0.00  0.00    -0.001 A 
ATOM     78  CE2 TYR A   6     -25.062   0.685  -1.959  0.00  0.00    +0.036 A 
ATOM     79  CZ  TYR A   6     -25.592   1.739  -2.616  0.00  0.00    +0.134 A 
ATOM     80  CE1 TYR A   6     -25.738   2.922  -1.977  0.00  0.00    +0.036 A 
ATOM     81  CD1 TYR A   6     -25.348   3.041  -0.665  0.00  0.00    -0.001 A 
BRANCH  79  82
ATOM     82  OH  TYR A   6     -25.929   1.588  -3.908  0.00  0.00    -0.506 OA
ATOM     83  HH  TYR A   6     -25.748   0.656  -4.188  0.00  0.00    +0.292 HD
ENDBRANCH  79  82
ENDBRANCH  75  76
ENDBRANCH   1  75
TORSDOF 33
REMARK  Name = ../refined-set-2016/4qgd/4qgd_pocket.pdb
REMARK  135 active torsions:
REMARK  status: ('A' for Active; 'I' for Inactive)
REMARK    1  A    between atoms: _1  and  _5
REMARK    2  A    between atoms: _5  and  _6
REMARK    3  A    between atoms: _5  and  _8
REMARK    4  A    between atoms: _8  and  _9
REMARK    5  A    between atoms: _11  and  _13
REMARK    6  A    between atoms: _13  and  _14
REMARK    7  A    between atoms: _13  and  _16
REMARK    8  A    between atoms: _16  and  _17
REMARK    9  A    between atoms: _20  and  _22
REMARK   10  A    between atoms: _22  and  _23
REMARK   11  A    between atoms: _22  and  _25
REMARK   12  A    between atoms: _25  and  _26
REMARK   13  A    between atoms: _29  and  _31
REMARK   14  A    between atoms: _31  and  _32
REMARK   15  A    between atoms: _31  and  _34
REMARK   16  A    between atoms: _34  and  _35
REMARK   17  A    between atoms: _35  and  _36
REMARK   18  A    between atoms: _39  and  _41
REMARK   19  A    between atoms: _41  and  _42
REMARK   20  A    between atoms: _41  and  _44
REMARK   21  A    between atoms: _44  and  _45
REMARK   22  A    between atoms: _51  and  _53
REMARK   23  A    between atoms: _53  and  _54
REMARK   24  A    between atoms: _56  and  _58
REMARK   25  A    between atoms: _58  and  _59
REMARK   26  A    between atoms: _58  and  _61
REMARK   27  A    between atoms: _61  and  _62
REMARK   28  A    between atoms: _62  and  _63
REMARK   29  A    between atoms: _63  and  _64
REMARK   30  A    between atoms: _64  and  _65
REMARK   31  A    between atoms: _69  and  _71
REMARK   32  A    between atoms: _71  and  _72
REMARK   33  A    between atoms: _71  and  _74
REMARK   34  A    between atoms: _74  and  _75
REMARK   35  A    between atoms: _75  and  _76
REMARK   36  A    between atoms: _78  and  _80
REMARK   37  A    between atoms: _80  and  _81
REMARK   38  A    between atoms: _80  and  _83
REMARK   39  A    between atoms: _83  and  _84
REMARK   40  A    between atoms: _87  and  _89
REMARK   41  A    between atoms: _89  and  _90
REMARK   42  A    between atoms: _89  and  _92
REMARK   43  A    between atoms: _92  and  _93
REMARK   44  A    between atoms: _96  and  _98
REMARK   45  A    between atoms: _98  and  _99
REMARK   46  A    between atoms: _98  and  _101
REMARK   47  A    between atoms: _101  and  _102
REMARK   48  A    between atoms: _105  and  _107
REMARK   49  A    between atoms: _107  and  _108
REMARK   50  A    between atoms: _111  and  _113
REMARK   51  A    between atoms: _113  and  _114
REMARK   52  A    between atoms: _113  and  _116
REMARK   53  A    between atoms: _116  and  _117
REMARK   54  A    between atoms: _121  and  _122
REMARK   55  A    between atoms: _127  and  _129
REMARK   56  A    between atoms: _129  and  _130
REMARK   57  A    between atoms: _129  and  _132
REMARK   58  A    between atoms: _132  and  _133
REMARK   59  A    between atoms: _135  and  _137
REMARK   60  A    between atoms: _137  and  _138
REMARK   61  A    between atoms: _137  and  _140
REMARK   62  A    between atoms: _140  and  _141
REMARK   63  A    between atoms: _146  and  _147
REMARK   64  A    between atoms: _149  and  _151
REMARK   65  A    between atoms: _151  and  _152
REMARK   66  A    between atoms: _151  and  _154
REMARK   67  A    between atoms: _154  and  _155
REMARK   68  A    between atoms: _157  and  _159
REMARK   69  A    between atoms: _159  and  _160
REMARK   70  A    between atoms: _159  and  _162
REMARK   71  A    between atoms: _162  and  _163
REMARK   72  A    between atoms: _165  and  _167
REMARK   73  A    between atoms: _167  and  _168
REMARK   74  A    between atoms: _167  and  _170
REMARK   75  A    between atoms: _170  and  _171
REMARK   76  A    between atoms: _176  and  _177
REMARK   77  A    between atoms: _179  and  _181
REMARK   78  A    between atoms: _181  and  _182
REMARK   79  A    between atoms: _181  and  _184
REMARK   80  A    between atoms: _184  and  _185
REMARK   81  A    between atoms: _190  and  _191
REMARK   82  A    between atoms: _193  and  _195
REMARK   83  A    between atoms: _195  and  _196
REMARK   84  A    between atoms: _195  and  _198
REMARK   85  A    between atoms: _198  and  _199
REMARK   86  A    between atoms: _199  and  _239
REMARK   87  A    between atoms: _200  and  _202
REMARK   88  A    between atoms: _202  and  _203
REMARK   89  A    between atoms: _205  and  _207
REMARK   90  A    between atoms: _207  and  _208
REMARK   91  A    between atoms: _207  and  _210
REMARK   92  A    between atoms: _210  and  _211
REMARK   93  A    between atoms: _221  and  _223
REMARK   94  A    between atoms: _223  and  _224
REMARK   95  A    between atoms: _226  and  _228
REMARK   96  A    between atoms: _228  and  _229
REMARK   97  A    between atoms: _228  and  _231
REMARK   98  A    between atoms: _233  and  _235
REMARK   99  A    between atoms: _235  and  _236
REMARK  100  A    between atoms: _235  and  _238
REMARK  101  A    between atoms: _238  and  _239
REMARK  102  A    between atoms: _240  and  _242
REMARK  103  A    between atoms: _242  and  _243
REMARK  104  A    between atoms: _242  and  _245
REMARK  105  A    between atoms: _245  and  _246
REMARK  106  A    between atoms: _252  and  _254
REMARK  107  A    between atoms: _254  and  _255
REMARK  108  A    between atoms: _254  and  _257
REMARK  109  A    between atoms: _257  and  _258
REMARK  110  A    between atoms: _263  and  _265
REMARK  111  A    between atoms: _265  and  _266
REMARK  112  A    between atoms: _265  and  _268
REMARK  113  A    between atoms: _268  and  _269
REMARK  114  A    between atoms: _272  and  _274
REMARK  115  A    between atoms: _274  and  _275
REMARK  116  A    between atoms: _274  and  _277
REMARK  117  A    between atoms: _277  and  _278
REMARK  118  A    between atoms: _283  and  _284
REMARK  119  A    between atoms: _286  and  _288
REMARK  120  A    between atoms: _288  and  _289
REMARK  121  A    between atoms: _288  and  _291
REMARK  122  A    between atoms: _291  and  _292
REMARK  123  A    between atoms: _292  and  _293
REMARK  124  A    between atoms: _293  and  _294
REMARK  125  A    between atoms: _294  and  _295
REMARK  126  A    between atoms: _299  and  _301
REMARK  127  A    between atoms: _301  and  _302
REMARK  128  A    between atoms: _301  and  _304
REMARK  129  A    between atoms: _304  and  _305
REMARK  130  A    between atoms: _308  and  _310
REMARK  131  A    between atoms: _310  and  _311
REMARK  132  A    between atoms: _314  and  _316
REMARK  133  A    between atoms: _316  and  _317
REMARK  134  A    between atoms: _316  and  _319
REMARK  135  A    between atoms: _319  and  _320
REMARK                            x       y       z     vdW  Elec       q    Type
REMARK                         _______ _______ _______ _____ _____    ______ ____
ROOT
ATOM      1  CA  CYS A   2     -21.134  -2.303   4.754  0.00  0.00    +0.160 C 
ENDROOT
BRANCH   1   2
ATOM      2  C   CYS A   2     -21.187  -1.612   6.117  0.00  0.00    +0.242 C 
ATOM      3  O   CYS A   2     -21.938  -2.022   6.935  0.00  0.00    -0.273 OA
ATOM      4  N   PHE A   3     -20.414  -0.548   6.299  0.00  0.00    -0.295 N 
ATOM      5  H   PHE A   3     -19.896  -0.201   5.467  0.00  0.00    +0.150 HD
BRANCH   4   6
ATOM      6  CA  PHE A   3     -20.214   0.189   7.552  0.00  0.00    +0.176 C 
BRANCH   6   7
ATOM      7  C   PHE A   3     -19.599  -0.483   8.781  0.00  0.00    +0.243 C 
ATOM      8  N   TRP A   4     -20.167  -0.291   9.957  0.00  0.00    -0.297 N 
ATOM      9  H   TRP A   4     -20.869   0.468  10.070  0.00  0.00    +0.150 HD
ATOM     10  O   PHE A   3     -18.716  -1.241   8.667  0.00  0.00    -0.273 OA
BRANCH   8  11
ATOM     11  CA  TRP A   4     -19.816  -1.149  11.127  0.00  0.00    +0.153 C 
BRANCH  11  12
ATOM     12  C   TRP A   4     -19.966  -2.612  10.640  0.00  0.00    +0.241 C 
ATOM     13  N   GLY A   5     -19.111  -3.535  11.020  0.00  0.00    -0.296 N 
ATOM     14  H   GLY A   5     -18.307  -3.282  11.630  0.00  0.00    +0.150 HD
ATOM     15  O   TRP A   4     -20.841  -2.863   9.807  0.00  0.00    -0.273 OA
BRANCH  13  16
ATOM     16  CA  GLY A   5     -19.294  -4.921  10.582  0.00  0.00    +0.163 C 
BRANCH  16  17
ATOM     17  C   GLY A   5     -18.078  -5.493   9.895  0.00  0.00    +0.229 C 
ATOM     18  O   GLY A   5     -16.955  -5.088  10.094  0.00  0.00    -0.286 OA
ENDBRANCH  16  17
ENDBRANCH  13  16
ENDBRANCH  11  12
BRANCH  11  19
ATOM     19  CB  TRP A   4     -20.824  -0.909  12.318  0.00  0.00    +0.057 C 
BRANCH  19  20
ATOM     20  CG  TRP A   4     -20.828  -2.060  13.297  0.00  0.00    -0.002 A 
ATOM     21  CD1 TRP A   4     -20.192  -2.127  14.493  0.00  0.00    +0.068 A 
ATOM     22  NE1 TRP A   4     -20.335  -3.361  15.021  0.00  0.00    -0.352 N 
ATOM     23  HE1 TRP A   4     -19.951  -3.670  15.937  0.00  0.00    +0.166 HD
ATOM     24  CE2 TRP A   4     -21.067  -4.147  14.160  0.00  0.00    +0.056 A 
ATOM     25  CZ2 TRP A   4     -21.463  -5.493  14.256  0.00  0.00    +0.017 A 
ATOM     26  CH2 TRP A   4     -22.172  -6.019  13.232  0.00  0.00    +0.001 A 
ATOM     27  CZ3 TRP A   4     -22.484  -5.285  12.129  0.00  0.00    +0.000 A 
ATOM     28  CE3 TRP A   4     -22.094  -3.953  12.012  0.00  0.00    +0.001 A 
ATOM     29  CD2 TRP A   4     -21.361  -3.376  13.050  0.00  0.00    +0.013 A 
ENDBRANCH  19  20
ENDBRANCH  11  19
ENDBRANCH   8  11
ENDBRANCH   6   7
ENDBRANCH   4   6
ENDBRANCH   1   2
BRANCH   1  32
ATOM     30  C   CYS A   1     -19.919  -4.296   5.308  0.00  0.00    +0.239 C 
ATOM     31  O   CYS A   1     -18.921  -3.663   5.621  0.00  0.00    -0.274 OA
ATOM     32  N   CYS A   2     -21.048  -3.746   4.930  0.00  0.00    -0.296 N 
ATOM     33  H   CYS A   2     -21.883  -4.341   4.756  0.00  0.00    +0.150 HD
BRANCH  30  34
ATOM     34  CA  CYS A   1     -19.845  -5.811   5.369  0.00  0.00    +0.149 C 
BRANCH  34  35
ATOM     35  N   CYS A   1     -21.078  -6.585   5.385  0.00  0.00    -0.238 NA
ATOM     36  H   CYS A   1     -21.796  -6.468   4.641  0.00  0.00    +0.142 HD
ENDBRANCH  34  35
BRANCH  34  37
ATOM     37  CB  CYS A   1     -18.883  -6.328   4.320  0.00  0.00    +0.053 C 
BRANCH  37  38
ATOM     38  CG  CYS A   1     -18.255  -7.621   4.744  0.00  0.00    -0.020 A 
ATOM     39  CD2 CYS A   1     -17.018  -7.642   5.442  0.00  0.00    -0.001 A 
ATOM     40  CE2 CYS A   1     -16.479  -8.839   5.869  0.00  0.00    +0.036 A 
ATOM     41  CZ  CYS A   1     -17.111 -10.041   5.548  0.00  0.00    +0.134 A 
ATOM     42  CE1 CYS A   1     -18.319 -10.035   4.866  0.00  0.00    +0.036 A 
ATOM     43  CD1 CYS A   1     -18.878  -8.812   4.478  0.00  0.00    -0.001 A 
BRANCH  41  44
ATOM     44  OH  CYS A   1     -16.560 -11.257   5.981  0.00  0.00    -0.506 OA
ATOM     45  HH  CYS A   1     -17.129 -12.005   5.670  0.00  0.00    +0.292 HD
ENDBRANCH  41  44
ENDBRANCH  37  38
ENDBRANCH  34  37
ENDBRANCH  30  34
ENDBRANCH   1  32
BRANCH   1  46
ATOM     46  CB  CYS A   2     -22.350  -1.940   3.936  0.00  0.00    +0.098 C 
BRANCH  46  47
ATOM     47  SG  CYS A   2     -22.336  -2.673   2.325  0.00  0.00    -0.080 S 
BRANCH  47  48
ATOM     48  SG  CYS A   2     -20.609  -2.045   1.532  0.00  0.00    -0.080 S 
BRANCH  48  49
ATOM     49  CB  CYS A   2     -19.401  -3.296   2.002  0.00  0.00    +0.098 C 
BRANCH  49  50
ATOM     50  CA  CYS A   2     -18.162  -3.320   1.043  0.00  0.00    +0.160 C 
BRANCH  50  51
ATOM     51  C   CYS A   2     -17.069  -4.174   1.598  0.00  0.00    +0.242 C 
ATOM     52  O   CYS A   2     -16.196  -3.670   2.265  0.00  0.00    -0.273 OA
ATOM     53  N   PHE A   3     -17.059  -5.487   1.284  0.00  0.00    -0.298 N 
ATOM     54  H   PHE A   3     -17.823  -5.882   0.700  0.00  0.00    +0.150 HD
BRANCH  53  55
ATOM     55  CA  PHE A   3     -16.020  -6.331   1.741  0.00  0.00    +0.141 C 
BRANCH  55  56
ATOM     56  C   PHE A   3     -14.680  -5.940   1.194  0.00  0.00    +0.227 C 
ATOM     57  O   PHE A   3     -13.674  -5.907   1.947  0.00  0.00    -0.286 OA
ENDBRANCH  55  56
BRANCH  55  58
ATOM     58  CB  PHE A   3     -16.334  -7.819   1.364  0.00  0.00    +0.054 C 
BRANCH  58  59
ATOM     59  CG  PHE A   3     -15.276  -8.782   1.827  0.00  0.00    -0.020 A 
ATOM     60  CD2 PHE A   3     -15.208  -9.166   3.165  0.00  0.00    -0.004 A 
ATOM     61  CE2 PHE A   3     -14.183 -10.022   3.648  0.00  0.00    -0.000 A 
ATOM     62  CZ  PHE A   3     -13.206 -10.497   2.772  0.00  0.00    -0.000 A 
ATOM     63  CE1 PHE A   3     -13.273 -10.127   1.438  0.00  0.00    -0.000 A 
ATOM     64  CD1 PHE A   3     -14.288  -9.253   0.968  0.00  0.00    -0.004 A 
ENDBRANCH  58  59
ENDBRANCH  55  58
ENDBRANCH  53  55
ENDBRANCH  50  51
BRANCH  50  65
ATOM     65  N   CYS A   2     -18.546  -3.771  -0.290  0.00  0.00    -0.296 N 
ATOM     66  H   CYS A   2     -19.480  -4.205  -0.432  0.00  0.00    +0.150 HD
ATOM     67  C   CYS A   1     -17.724  -3.638  -1.326  0.00  0.00    +0.239 C 
ATOM     68  O   CYS A   1     -16.591  -3.171  -1.186  0.00  0.00    -0.274 OA
BRANCH  67  69
ATOM     69  CA  CYS A   1     -18.255  -4.117  -2.681  0.00  0.00    +0.156 C 
BRANCH  69  70
ATOM     70  CB  CYS A   1     -19.192  -3.080  -3.256  0.00  0.00    +0.095 C 
ATOM     71  SG  CYS A   1     -19.853  -3.356  -4.919  0.00  0.00    -0.080 S 
ENDBRANCH  69  70
BRANCH  69  72
ATOM     72  N   CYS A   1     -18.930  -5.419  -2.492  0.00  0.00    -0.237 NA
ATOM     73  H   CYS A   1     -19.947  -5.518  -2.687  0.00  0.00    +0.142 HD
ENDBRANCH  69  72
ENDBRANCH  67  69
ENDBRANCH  50  65
ENDBRANCH  49  50
ENDBRANCH  48  49
ENDBRANCH  47  48
ENDBRANCH  46  47
ENDBRANCH   1  46
TORSDOF 29
REMARK  Name = ../refined-set-2016/4qgd/4qgd_pocket.pdb
REMARK  135 active torsions:
REMARK  status: ('A' for Active; 'I' for Inactive)
REMARK    1  A    between atoms: _1  and  _5
REMARK    2  A    between atoms: _5  and  _6
REMARK    3  A    between atoms: _5  and  _8
REMARK    4  A    between atoms: _8  and  _9
REMARK    5  A    between atoms: _11  and  _13
REMARK    6  A    between atoms: _13  and  _14
REMARK    7  A    between atoms: _13  and  _16
REMARK    8  A    between atoms: _16  and  _17
REMARK    9  A    between atoms: _20  and  _22
REMARK   10  A    between atoms: _22  and  _23
REMARK   11  A    between atoms: _22  and  _25
REMARK   12  A    between atoms: _25  and  _26
REMARK   13  A    between atoms: _29  and  _31
REMARK   14  A    between atoms: _31  and  _32
REMARK   15  A    between atoms: _31  and  _34
REMARK   16  A    between atoms: _34  and  _35
REMARK   17  A    between atoms: _35  and  _36
REMARK   18  A    between atoms: _39  and  _41
REMARK   19  A    between atoms: _41  and  _42
REMARK   20  A    between atoms: _41  and  _44
REMARK   21  A    between atoms: _44  and  _45
REMARK   22  A    between atoms: _51  and  _53
REMARK   23  A    between atoms: _53  and  _54
REMARK   24  A    between atoms: _56  and  _58
REMARK   25  A    between atoms: _58  and  _59
REMARK   26  A    between atoms: _58  and  _61
REMARK   27  A    between atoms: _61  and  _62
REMARK   28  A    between atoms: _62  and  _63
REMARK   29  A    between atoms: _63  and  _64
REMARK   30  A    between atoms: _64  and  _65
REMARK   31  A    between atoms: _69  and  _71
REMARK   32  A    between atoms: _71  and  _72
REMARK   33  A    between atoms: _71  and  _74
REMARK   34  A    between atoms: _74  and  _75
REMARK   35  A    between atoms: _75  and  _76
REMARK   36  A    between atoms: _78  and  _80
REMARK   37  A    between atoms: _80  and  _81
REMARK   38  A    between atoms: _80  and  _83
REMARK   39  A    between atoms: _83  and  _84
REMARK   40  A    between atoms: _87  and  _89
REMARK   41  A    between atoms: _89  and  _90
REMARK   42  A    between atoms: _89  and  _92
REMARK   43  A    between atoms: _92  and  _93
REMARK   44  A    between atoms: _96  and  _98
REMARK   45  A    between atoms: _98  and  _99
REMARK   46  A    between atoms: _98  and  _101
REMARK   47  A    between atoms: _101  and  _102
REMARK   48  A    between atoms: _105  and  _107
REMARK   49  A    between atoms: _107  and  _108
REMARK   50  A    between atoms: _111  and  _113
REMARK   51  A    between atoms: _113  and  _114
REMARK   52  A    between atoms: _113  and  _116
REMARK   53  A    between atoms: _116  and  _117
REMARK   54  A    between atoms: _121  and  _122
REMARK   55  A    between atoms: _127  and  _129
REMARK   56  A    between atoms: _129  and  _130
REMARK   57  A    between atoms: _129  and  _132
REMARK   58  A    between atoms: _132  and  _133
REMARK   59  A    between atoms: _135  and  _137
REMARK   60  A    between atoms: _137  and  _138
REMARK   61  A    between atoms: _137  and  _140
REMARK   62  A    between atoms: _140  and  _141
REMARK   63  A    between atoms: _146  and  _147
REMARK   64  A    between atoms: _149  and  _151
REMARK   65  A    between atoms: _151  and  _152
REMARK   66  A    between atoms: _151  and  _154
REMARK   67  A    between atoms: _154  and  _155
REMARK   68  A    between atoms: _157  and  _159
REMARK   69  A    between atoms: _159  and  _160
REMARK   70  A    between atoms: _159  and  _162
REMARK   71  A    between atoms: _162  and  _163
REMARK   72  A    between atoms: _165  and  _167
REMARK   73  A    between atoms: _167  and  _168
REMARK   74  A    between atoms: _167  and  _170
REMARK   75  A    between atoms: _170  and  _171
REMARK   76  A    between atoms: _176  and  _177
REMARK   77  A    between atoms: _179  and  _181
REMARK   78  A    between atoms: _181  and  _182
REMARK   79  A    between atoms: _181  and  _184
REMARK   80  A    between atoms: _184  and  _185
REMARK   81  A    between atoms: _190  and  _191
REMARK   82  A    between atoms: _193  and  _195
REMARK   83  A    between atoms: _195  and  _196
REMARK   84  A    between atoms: _195  and  _198
REMARK   85  A    between atoms: _198  and  _199
REMARK   86  A    between atoms: _199  and  _239
REMARK   87  A    between atoms: _200  and  _202
REMARK   88  A    between atoms: _202  and  _203
REMARK   89  A    between atoms: _205  and  _207
REMARK   90  A    between atoms: _207  and  _208
REMARK   91  A    between atoms: _207  and  _210
REMARK   92  A    between atoms: _210  and  _211
REMARK   93  A    between atoms: _221  and  _223
REMARK   94  A    between atoms: _223  and  _224
REMARK   95  A    between atoms: _226  and  _228
REMARK   96  A    between atoms: _228  and  _229
REMARK   97  A    between atoms: _228  and  _231
REMARK   98  A    between atoms: _233  and  _235
REMARK   99  A    between atoms: _235  and  _236
REMARK  100  A    between atoms: _235  and  _238
REMARK  101  A    between atoms: _238  and  _239
REMARK  102  A    between atoms: _240  and  _242
REMARK  103  A    between atoms: _242  and  _243
REMARK  104  A    between atoms: _242  and  _245
REMARK  105  A    between atoms: _245  and  _246
REMARK  106  A    between atoms: _252  and  _254
REMARK  107  A    between atoms: _254  and  _255
REMARK  108  A    between atoms: _254  and  _257
REMARK  109  A    between atoms: _257  and  _258
REMARK  110  A    between atoms: _263  and  _265
REMARK  111  A    between atoms: _265  and  _266
REMARK  112  A    between atoms: _265  and  _268
REMARK  113  A    between atoms: _268  and  _269
REMARK  114  A    between atoms: _272  and  _274
REMARK  115  A    between atoms: _274  and  _275
REMARK  116  A    between atoms: _274  and  _277
REMARK  117  A    between atoms: _277  and  _278
REMARK  118  A    between atoms: _283  and  _284
REMARK  119  A    between atoms: _286  and  _288
REMARK  120  A    between atoms: _288  and  _289
REMARK  121  A    between atoms: _288  and  _291
REMARK  122  A    between atoms: _291  and  _292
REMARK  123  A    between atoms: _292  and  _293
REMARK  124  A    between atoms: _293  and  _294
REMARK  125  A    between atoms: _294  and  _295
REMARK  126  A    between atoms: _299  and  _301
REMARK  127  A    between atoms: _301  and  _302
REMARK  128  A    between atoms: _301  and  _304
REMARK  129  A    between atoms: _304  and  _305
REMARK  130  A    between atoms: _308  and  _310
REMARK  131  A    between atoms: _310  and  _311
REMARK  132  A    between atoms: _314  and  _316
REMARK  133  A    between atoms: _316  and  _317
REMARK  134  A    between atoms: _316  and  _319
REMARK  135  A    between atoms: _319  and  _320
REMARK                            x       y       z     vdW  Elec       q    Type
REMARK                         _______ _______ _______ _____ _____    ______ ____
ROOT
ATOM      1  C   HIS A   1     -13.079  -1.791   2.000  0.00  0.00    +0.239 C 
ATOM      2  N   ASP A   2     -13.651  -2.686   2.794  0.00  0.00    -0.298 N 
ATOM      3  H   ASP A   2     -14.482  -3.201   2.440  0.00  0.00    +0.150 HD
ATOM      4  O   HIS A   1     -12.045  -1.123   2.329  0.00  0.00    -0.274 OA
ENDROOT
BRANCH   1   5
ATOM      5  CA  HIS A   1     -13.675  -1.654   0.602  0.00  0.00    +0.151 C 
BRANCH   5   6
ATOM      6  N   HIS A   1     -13.926  -2.984   0.019  0.00  0.00    -0.238 NA
ATOM      7  H   HIS A   1     -14.897  -3.253  -0.240  0.00  0.00    +0.142 HD
ENDBRANCH   5   6
BRANCH   5   8
ATOM      8  CB  HIS A   1     -14.952  -0.890   0.655  0.00  0.00    +0.074 C 
BRANCH   8   9
ATOM      9  CG  HIS A   1     -14.765   0.575   1.061  0.00  0.00    +0.082 A 
ATOM     10  ND1 HIS A   1     -15.238   1.064   2.236  0.00  0.00    -0.227 NA
ATOM     11  CE1 HIS A   1     -14.950   2.396   2.332  0.00  0.00    +0.199 A 
ATOM     12  NE2 HIS A   1     -14.267   2.740   1.204  0.00  0.00    -0.221 NA
ATOM     13  CD2 HIS A   1     -14.168   1.624   0.401  0.00  0.00    +0.115 A 
ENDBRANCH   8   9
ENDBRANCH   5   8
ENDBRANCH   1   5
BRANCH   2  14
ATOM     14  CA  ASP A   2     -13.176  -2.982   4.130  0.00  0.00    +0.148 C 
BRANCH  14  15
ATOM     15  C   ASP A   2     -11.726  -3.502   4.020  0.00  0.00    +0.227 C 
ATOM     16  O   ASP A   2     -10.865  -3.114   4.830  0.00  0.00    -0.286 OA
ENDBRANCH  14  15
BRANCH  14  17
ATOM     17  CB  ASP A   2     -14.016  -4.011   4.804  0.00  0.00    +0.142 C 
BRANCH  17  18
ATOM     18  CG  ASP A   2     -15.415  -3.481   5.245  0.00  0.00    +0.367 C 
ATOM     19  OD2 ASP A   2     -16.231  -4.286   5.629  0.00  0.00    -0.246 OA
ATOM     20  OD1 ASP A   2     -15.632  -2.229   5.264  0.00  0.00    -0.246 OA
ENDBRANCH  17  18
ENDBRANCH  14  17
ENDBRANCH   2  14
TORSDOF 8
REMARK  Name = ../refined-set-2016/4qgd/4qgd_pocket.pdb
REMARK  135 active torsions:
REMARK  status: ('A' for Active; 'I' for Inactive)
REMARK    1  A    between atoms: _1  and  _5
REMARK    2  A    between atoms: _5  and  _6
REMARK    3  A    between atoms: _5  and  _8
REMARK    4  A    between atoms: _8  and  _9
REMARK    5  A    between atoms: _11  and  _13
REMARK    6  A    between atoms: _13  and  _14
REMARK    7  A    between atoms: _13  and  _16
REMARK    8  A    between atoms: _16  and  _17
REMARK    9  A    between atoms: _20  and  _22
REMARK   10  A    between atoms: _22  and  _23
REMARK   11  A    between atoms: _22  and  _25
REMARK   12  A    between atoms: _25  and  _26
REMARK   13  A    between atoms: _29  and  _31
REMARK   14  A    between atoms: _31  and  _32
REMARK   15  A    between atoms: _31  and  _34
REMARK   16  A    between atoms: _34  and  _35
REMARK   17  A    between atoms: _35  and  _36
REMARK   18  A    between atoms: _39  and  _41
REMARK   19  A    between atoms: _41  and  _42
REMARK   20  A    between atoms: _41  and  _44
REMARK   21  A    between atoms: _44  and  _45
REMARK   22  A    between atoms: _51  and  _53
REMARK   23  A    between atoms: _53  and  _54
REMARK   24  A    between atoms: _56  and  _58
REMARK   25  A    between atoms: _58  and  _59
REMARK   26  A    between atoms: _58  and  _61
REMARK   27  A    between atoms: _61  and  _62
REMARK   28  A    between atoms: _62  and  _63
REMARK   29  A    between atoms: _63  and  _64
REMARK   30  A    between atoms: _64  and  _65
REMARK   31  A    between atoms: _69  and  _71
REMARK   32  A    between atoms: _71  and  _72
REMARK   33  A    between atoms: _71  and  _74
REMARK   34  A    between atoms: _74  and  _75
REMARK   35  A    between atoms: _75  and  _76
REMARK   36  A    between atoms: _78  and  _80
REMARK   37  A    between atoms: _80  and  _81
REMARK   38  A    between atoms: _80  and  _83
REMARK   39  A    between atoms: _83  and  _84
REMARK   40  A    between atoms: _87  and  _89
REMARK   41  A    between atoms: _89  and  _90
REMARK   42  A    between atoms: _89  and  _92
REMARK   43  A    between atoms: _92  and  _93
REMARK   44  A    between atoms: _96  and  _98
REMARK   45  A    between atoms: _98  and  _99
REMARK   46  A    between atoms: _98  and  _101
REMARK   47  A    between atoms: _101  and  _102
REMARK   48  A    between atoms: _105  and  _107
REMARK   49  A    between atoms: _107  and  _108
REMARK   50  A    between atoms: _111  and  _113
REMARK   51  A    between atoms: _113  and  _114
REMARK   52  A    between atoms: _113  and  _116
REMARK   53  A    between atoms: _116  and  _117
REMARK   54  A    between atoms: _121  and  _122
REMARK   55  A    between atoms: _127  and  _129
REMARK   56  A    between atoms: _129  and  _130
REMARK   57  A    between atoms: _129  and  _132
REMARK   58  A    between atoms: _132  and  _133
REMARK   59  A    between atoms: _135  and  _137
REMARK   60  A    between atoms: _137  and  _138
REMARK   61  A    between atoms: _137  and  _140
REMARK   62  A    between atoms: _140  and  _141
REMARK   63  A    between atoms: _146  and  _147
REMARK   64  A    between atoms: _149  and  _151
REMARK   65  A    between atoms: _151  and  _152
REMARK   66  A    between atoms: _151  and  _154
REMARK   67  A    between atoms: _154  and  _155
REMARK   68  A    between atoms: _157  and  _159
REMARK   69  A    between atoms: _159  and  _160
REMARK   70  A    between atoms: _159  and  _162
REMARK   71  A    between atoms: _162  and  _163
REMARK   72  A    between atoms: _165  and  _167
REMARK   73  A    between atoms: _167  and  _168
REMARK   74  A    between atoms: _167  and  _170
REMARK   75  A    between atoms: _170  and  _171
REMARK   76  A    between atoms: _176  and  _177
REMARK   77  A    between atoms: _179  and  _181
REMARK   78  A    between atoms: _181  and  _182
REMARK   79  A    between atoms: _181  and  _184
REMARK   80  A    between atoms: _184  and  _185
REMARK   81  A    between atoms: _190  and  _191
REMARK   82  A    between atoms: _193  and  _195
REMARK   83  A    between atoms: _195  and  _196
REMARK   84  A    between atoms: _195  and  _198
REMARK   85  A    between atoms: _198  and  _199
REMARK   86  A    between atoms: _199  and  _239
REMARK   87  A    between atoms: _200  and  _202
REMARK   88  A    between atoms: _202  and  _203
REMARK   89  A    between atoms: _205  and  _207
REMARK   90  A    between atoms: _207  and  _208
REMARK   91  A    between atoms: _207  and  _210
REMARK   92  A    between atoms: _210  and  _211
REMARK   93  A    between atoms: _221  and  _223
REMARK   94  A    between atoms: _223  and  _224
REMARK   95  A    between atoms: _226  and  _228
REMARK   96  A    between atoms: _228  and  _229
REMARK   97  A    between atoms: _228  and  _231
REMARK   98  A    between atoms: _233  and  _235
REMARK   99  A    between atoms: _235  and  _236
REMARK  100  A    between atoms: _235  and  _238
REMARK  101  A    between atoms: _238  and  _239
REMARK  102  A    between atoms: _240  and  _242
REMARK  103  A    between atoms: _242  and  _243
REMARK  104  A    between atoms: _242  and  _245
REMARK  105  A    between atoms: _245  and  _246
REMARK  106  A    between atoms: _252  and  _254
REMARK  107  A    between atoms: _254  and  _255
REMARK  108  A    between atoms: _254  and  _257
REMARK  109  A    between atoms: _257  and  _258
REMARK  110  A    between atoms: _263  and  _265
REMARK  111  A    between atoms: _265  and  _266
REMARK  112  A    between atoms: _265  and  _268
REMARK  113  A    between atoms: _268  and  _269
REMARK  114  A    between atoms: _272  and  _274
REMARK  115  A    between atoms: _274  and  _275
REMARK  116  A    between atoms: _274  and  _277
REMARK  117  A    between atoms: _277  and  _278
REMARK  118  A    between atoms: _283  and  _284
REMARK  119  A    between atoms: _286  and  _288
REMARK  120  A    between atoms: _288  and  _289
REMARK  121  A    between atoms: _288  and  _291
REMARK  122  A    between atoms: _291  and  _292
REMARK  123  A    between atoms: _292  and  _293
REMARK  124  A    between atoms: _293  and  _294
REMARK  125  A    between atoms: _294  and  _295
REMARK  126  A    between atoms: _299  and  _301
REMARK  127  A    between atoms: _301  and  _302
REMARK  128  A    between atoms: _301  and  _304
REMARK  129  A    between atoms: _304  and  _305
REMARK  130  A    between atoms: _308  and  _310
REMARK  131  A    between atoms: _310  and  _311
REMARK  132  A    between atoms: _314  and  _316
REMARK  133  A    between atoms: _316  and  _317
REMARK  134  A    between atoms: _316  and  _319
REMARK  135  A    between atoms: _319  and  _320
REMARK                            x       y       z     vdW  Elec       q    Type
REMARK                         _______ _______ _______ _____ _____    ______ ____
ROOT
ATOM      1  CG  TYR A   1     -11.026   1.714   4.672  0.00  0.00    -0.020 A 
ATOM      2  CD2 TYR A   1     -12.224   2.060   5.342  0.00  0.00    -0.001 A 
ATOM      3  CE2 TYR A   1     -12.955   3.203   4.998  0.00  0.00    +0.036 A 
ATOM      4  CZ  TYR A   1     -12.595   3.925   3.881  0.00  0.00    +0.134 A 
ATOM      5  CE1 TYR A   1     -11.362   3.593   3.176  0.00  0.00    +0.036 A 
ATOM      6  CD1 TYR A   1     -10.615   2.489   3.611  0.00  0.00    -0.001 A 
ENDROOT
BRANCH   4   7
ATOM      7  OH  TYR A   1     -13.303   5.074   3.536  0.00  0.00    -0.506 OA
ATOM      8  HH  TYR A   1     -12.914   5.465   2.714  0.00  0.00    +0.292 HD
ENDBRANCH   4   7
BRANCH   1   9
ATOM      9  CB  TYR A   1     -10.219   0.501   5.114  0.00  0.00    +0.051 C 
BRANCH   9  10
ATOM     10  CA  TYR A   1      -8.965   0.207   4.295  0.00  0.00    +0.137 C 
BRANCH  10  11
ATOM     11  N   TYR A   1      -9.322  -0.577   3.116  0.00  0.00    -0.239 NA
ATOM     12  H   TYR A   1     -10.293  -0.933   3.005  0.00  0.00    +0.142 HD
ENDBRANCH  10  11
BRANCH  10  13
ATOM     13  C   TYR A   1      -7.966  -0.578   5.154  0.00  0.00    +0.224 C 
ATOM     14  O   TYR A   1      -7.081  -0.007   5.774  0.00  0.00    -0.287 OA
ENDBRANCH  10  13
ENDBRANCH   9  10
ENDBRANCH   1   9
TORSDOF 5
REMARK  Name = ../refined-set-2016/4qgd/4qgd_pocket.pdb
REMARK  135 active torsions:
REMARK  status: ('A' for Active; 'I' for Inactive)
REMARK    1  A    between atoms: _1  and  _5
REMARK    2  A    between atoms: _5  and  _6
REMARK    3  A    between atoms: _5  and  _8
REMARK    4  A    between atoms: _8  and  _9
REMARK    5  A    between atoms: _11  and  _13
REMARK    6  A    between atoms: _13  and  _14
REMARK    7  A    between atoms: _13  and  _16
REMARK    8  A    between atoms: _16  and  _17
REMARK    9  A    between atoms: _20  and  _22
REMARK   10  A    between atoms: _22  and  _23
REMARK   11  A    between atoms: _22  and  _25
REMARK   12  A    between atoms: _25  and  _26
REMARK   13  A    between atoms: _29  and  _31
REMARK   14  A    between atoms: _31  and  _32
REMARK   15  A    between atoms: _31  and  _34
REMARK   16  A    between atoms: _34  and  _35
REMARK   17  A    between atoms: _35  and  _36
REMARK   18  A    between atoms: _39  and  _41
REMARK   19  A    between atoms: _41  and  _42
REMARK   20  A    between atoms: _41  and  _44
REMARK   21  A    between atoms: _44  and  _45
REMARK   22  A    between atoms: _51  and  _53
REMARK   23  A    between atoms: _53  and  _54
REMARK   24  A    between atoms: _56  and  _58
REMARK   25  A    between atoms: _58  and  _59
REMARK   26  A    between atoms: _58  and  _61
REMARK   27  A    between atoms: _61  and  _62
REMARK   28  A    between atoms: _62  and  _63
REMARK   29  A    between atoms: _63  and  _64
REMARK   30  A    between atoms: _64  and  _65
REMARK   31  A    between atoms: _69  and  _71
REMARK   32  A    between atoms: _71  and  _72
REMARK   33  A    between atoms: _71  and  _74
REMARK   34  A    between atoms: _74  and  _75
REMARK   35  A    between atoms: _75  and  _76
REMARK   36  A    between atoms: _78  and  _80
REMARK   37  A    between atoms: _80  and  _81
REMARK   38  A    between atoms: _80  and  _83
REMARK   39  A    between atoms: _83  and  _84
REMARK   40  A    between atoms: _87  and  _89
REMARK   41  A    between atoms: _89  and  _90
REMARK   42  A    between atoms: _89  and  _92
REMARK   43  A    between atoms: _92  and  _93
REMARK   44  A    between atoms: _96  and  _98
REMARK   45  A    between atoms: _98  and  _99
REMARK   46  A    between atoms: _98  and  _101
REMARK   47  A    between atoms: _101  and  _102
REMARK   48  A    between atoms: _105  and  _107
REMARK   49  A    between atoms: _107  and  _108
REMARK   50  A    between atoms: _111  and  _113
REMARK   51  A    between atoms: _113  and  _114
REMARK   52  A    between atoms: _113  and  _116
REMARK   53  A    between atoms: _116  and  _117
REMARK   54  A    between atoms: _121  and  _122
REMARK   55  A    between atoms: _127  and  _129
REMARK   56  A    between atoms: _129  and  _130
REMARK   57  A    between atoms: _129  and  _132
REMARK   58  A    between atoms: _132  and  _133
REMARK   59  A    between atoms: _135  and  _137
REMARK   60  A    between atoms: _137  and  _138
REMARK   61  A    between atoms: _137  and  _140
REMARK   62  A    between atoms: _140  and  _141
REMARK   63  A    between atoms: _146  and  _147
REMARK   64  A    between atoms: _149  and  _151
REMARK   65  A    between atoms: _151  and  _152
REMARK   66  A    between atoms: _151  and  _154
REMARK   67  A    between atoms: _154  and  _155
REMARK   68  A    between atoms: _157  and  _159
REMARK   69  A    between atoms: _159  and  _160
REMARK   70  A    between atoms: _159  and  _162
REMARK   71  A    between atoms: _162  and  _163
REMARK   72  A    between atoms: _165  and  _167
REMARK   73  A    between atoms: _167  and  _168
REMARK   74  A    between atoms: _167  and  _170
REMARK   75  A    between atoms: _170  and  _171
REMARK   76  A    between atoms: _176  and  _177
REMARK   77  A    between atoms: _179  and  _181
REMARK   78  A    between atoms: _181  and  _182
REMARK   79  A    between atoms: _181  and  _184
REMARK   80  A    between atoms: _184  and  _185
REMARK   81  A    between atoms: _190  and  _191
REMARK   82  A    between atoms: _193  and  _195
REMARK   83  A    between atoms: _195  and  _196
REMARK   84  A    between atoms: _195  and  _198
REMARK   85  A    between atoms: _198  and  _199
REMARK   86  A    between atoms: _199  and  _239
REMARK   87  A    between atoms: _200  and  _202
REMARK   88  A    between atoms: _202  and  _203
REMARK   89  A    between atoms: _205  and  _207
REMARK   90  A    between atoms: _207  and  _208
REMARK   91  A    between atoms: _207  and  _210
REMARK   92  A    between atoms: _210  and  _211
REMARK   93  A    between atoms: _221  and  _223
REMARK   94  A    between atoms: _223  and  _224
REMARK   95  A    between atoms: _226  and  _228
REMARK   96  A    between atoms: _228  and  _229
REMARK   97  A    between atoms: _228  and  _231
REMARK   98  A    between atoms: _233  and  _235
REMARK   99  A    between atoms: _235  and  _236
REMARK  100  A    between atoms: _235  and  _238
REMARK  101  A    between atoms: _238  and  _239
REMARK  102  A    between atoms: _240  and  _242
REMARK  103  A    between atoms: _242  and  _243
REMARK  104  A    between atoms: _242  and  _245
REMARK  105  A    between atoms: _245  and  _246
REMARK  106  A    between atoms: _252  and  _254
REMARK  107  A    between atoms: _254  and  _255
REMARK  108  A    between atoms: _254  and  _257
REMARK  109  A    between atoms: _257  and  _258
REMARK  110  A    between atoms: _263  and  _265
REMARK  111  A    between atoms: _265  and  _266
REMARK  112  A    between atoms: _265  and  _268
REMARK  113  A    between atoms: _268  and  _269
REMARK  114  A    between atoms: _272  and  _274
REMARK  115  A    between atoms: _274  and  _275
REMARK  116  A    between atoms: _274  and  _277
REMARK  117  A    between atoms: _277  and  _278
REMARK  118  A    between atoms: _283  and  _284
REMARK  119  A    between atoms: _286  and  _288
REMARK  120  A    between atoms: _288  and  _289
REMARK  121  A    between atoms: _288  and  _291
REMARK  122  A    between atoms: _291  and  _292
REMARK  123  A    between atoms: _292  and  _293
REMARK  124  A    between atoms: _293  and  _294
REMARK  125  A    between atoms: _294  and  _295
REMARK  126  A    between atoms: _299  and  _301
REMARK  127  A    between atoms: _301  and  _302
REMARK  128  A    between atoms: _301  and  _304
REMARK  129  A    between atoms: _304  and  _305
REMARK  130  A    between atoms: _308  and  _310
REMARK  131  A    between atoms: _310  and  _311
REMARK  132  A    between atoms: _314  and  _316
REMARK  133  A    between atoms: _316  and  _317
REMARK  134  A    between atoms: _316  and  _319
REMARK  135  A    between atoms: _319  and  _320
REMARK                            x       y       z     vdW  Elec       q    Type
REMARK                         _______ _______ _______ _____ _____    ______ ____
ROOT
ATOM      1  CG  LYS A   1     -13.754   6.385  10.068  0.00  0.00    -0.000 C 
ENDROOT
BRANCH   1   2
ATOM      2  CB  LYS A   1     -13.749   7.862   9.864  0.00  0.00    +0.025 C 
BRANCH   2   3
ATOM      3  CA  LYS A   1     -13.146   8.366   8.554  0.00  0.00    +0.133 C 
BRANCH   3   4
ATOM      4  N   LYS A   1     -11.932   7.652   8.109  0.00  0.00    -0.239 NA
ATOM      5  H   LYS A   1     -11.385   7.082   8.786  0.00  0.00    +0.142 HD
ENDBRANCH   3   4
BRANCH   3   6
ATOM      6  C   LYS A   1     -12.917   9.881   8.634  0.00  0.00    +0.224 C 
ATOM      7  O   LYS A   1     -13.802  10.655   8.269  0.00  0.00    -0.287 OA
ENDBRANCH   3   6
ENDBRANCH   2   3
ENDBRANCH   1   2
BRANCH   1   8
ATOM      8  CD  LYS A   1     -14.347   5.570   8.956  0.00  0.00    -0.024 C 
BRANCH   8   9
ATOM      9  CE  LYS A   1     -14.204   4.060   9.301  0.00  0.00    -0.086 C 
BRANCH   9  10
ATOM     10  NZ  LYS A   1     -14.191   3.128   8.118  0.00  0.00    +0.380 N 
ATOM     11  HZ1 LYS A   1     -14.092   2.148   8.451  0.00  0.00    -0.089 HD
ATOM     12  HZ2 LYS A   1     -15.081   3.228   7.590  0.00  0.00    -0.089 HD
ATOM     13  HZ3 LYS A   1     -13.390   3.367   7.499  0.00  0.00    -0.089 HD
ENDBRANCH   9  10
ENDBRANCH   8   9
ENDBRANCH   1   8
TORSDOF 7
REMARK  Name = ../refined-set-2016/4qgd/4qgd_pocket.pdb
REMARK  135 active torsions:
REMARK  status: ('A' for Active; 'I' for Inactive)
REMARK    1  A    between atoms: _1  and  _5
REMARK    2  A    between atoms: _5  and  _6
REMARK    3  A    between atoms: _5  and  _8
REMARK    4  A    between atoms: _8  and  _9
REMARK    5  A    between atoms: _11  and  _13
REMARK    6  A    between atoms: _13  and  _14
REMARK    7  A    between atoms: _13  and  _16
REMARK    8  A    between atoms: _16  and  _17
REMARK    9  A    between atoms: _20  and  _22
REMARK   10  A    between atoms: _22  and  _23
REMARK   11  A    between atoms: _22  and  _25
REMARK   12  A    between atoms: _25  and  _26
REMARK   13  A    between atoms: _29  and  _31
REMARK   14  A    between atoms: _31  and  _32
REMARK   15  A    between atoms: _31  and  _34
REMARK   16  A    between atoms: _34  and  _35
REMARK   17  A    between atoms: _35  and  _36
REMARK   18  A    between atoms: _39  and  _41
REMARK   19  A    between atoms: _41  and  _42
REMARK   20  A    between atoms: _41  and  _44
REMARK   21  A    between atoms: _44  and  _45
REMARK   22  A    between atoms: _51  and  _53
REMARK   23  A    between atoms: _53  and  _54
REMARK   24  A    between atoms: _56  and  _58
REMARK   25  A    between atoms: _58  and  _59
REMARK   26  A    between atoms: _58  and  _61
REMARK   27  A    between atoms: _61  and  _62
REMARK   28  A    between atoms: _62  and  _63
REMARK   29  A    between atoms: _63  and  _64
REMARK   30  A    between atoms: _64  and  _65
REMARK   31  A    between atoms: _69  and  _71
REMARK   32  A    between atoms: _71  and  _72
REMARK   33  A    between atoms: _71  and  _74
REMARK   34  A    between atoms: _74  and  _75
REMARK   35  A    between atoms: _75  and  _76
REMARK   36  A    between atoms: _78  and  _80
REMARK   37  A    between atoms: _80  and  _81
REMARK   38  A    between atoms: _80  and  _83
REMARK   39  A    between atoms: _83  and  _84
REMARK   40  A    between atoms: _87  and  _89
REMARK   41  A    between atoms: _89  and  _90
REMARK   42  A    between atoms: _89  and  _92
REMARK   43  A    between atoms: _92  and  _93
REMARK   44  A    between atoms: _96  and  _98
REMARK   45  A    between atoms: _98  and  _99
REMARK   46  A    between atoms: _98  and  _101
REMARK   47  A    between atoms: _101  and  _102
REMARK   48  A    between atoms: _105  and  _107
REMARK   49  A    between atoms: _107  and  _108
REMARK   50  A    between atoms: _111  and  _113
REMARK   51  A    between atoms: _113  and  _114
REMARK   52  A    between atoms: _113  and  _116
REMARK   53  A    between atoms: _116  and  _117
REMARK   54  A    between atoms: _121  and  _122
REMARK   55  A    between atoms: _127  and  _129
REMARK   56  A    between atoms: _129  and  _130
REMARK   57  A    between atoms: _129  and  _132
REMARK   58  A    between atoms: _132  and  _133
REMARK   59  A    between atoms: _135  and  _137
REMARK   60  A    between atoms: _137  and  _138
REMARK   61  A    between atoms: _137  and  _140
REMARK   62  A    between atoms: _140  and  _141
REMARK   63  A    between atoms: _146  and  _147
REMARK   64  A    between atoms: _149  and  _151
REMARK   65  A    between atoms: _151  and  _152
REMARK   66  A    between atoms: _151  and  _154
REMARK   67  A    between atoms: _154  and  _155
REMARK   68  A    between atoms: _157  and  _159
REMARK   69  A    between atoms: _159  and  _160
REMARK   70  A    between atoms: _159  and  _162
REMARK   71  A    between atoms: _162  and  _163
REMARK   72  A    between atoms: _165  and  _167
REMARK   73  A    between atoms: _167  and  _168
REMARK   74  A    between atoms: _167  and  _170
REMARK   75  A    between atoms: _170  and  _171
REMARK   76  A    between atoms: _176  and  _177
REMARK   77  A    between atoms: _179  and  _181
REMARK   78  A    between atoms: _181  and  _182
REMARK   79  A    between atoms: _181  and  _184
REMARK   80  A    between atoms: _184  and  _185
REMARK   81  A    between atoms: _190  and  _191
REMARK   82  A    between atoms: _193  and  _195
REMARK   83  A    between atoms: _195  and  _196
REMARK   84  A    between atoms: _195  and  _198
REMARK   85  A    between atoms: _198  and  _199
REMARK   86  A    between atoms: _199  and  _239
REMARK   87  A    between atoms: _200  and  _202
REMARK   88  A    between atoms: _202  and  _203
REMARK   89  A    between atoms: _205  and  _207
REMARK   90  A    between atoms: _207  and  _208
REMARK   91  A    between atoms: _207  and  _210
REMARK   92  A    between atoms: _210  and  _211
REMARK   93  A    between atoms: _221  and  _223
REMARK   94  A    between atoms: _223  and  _224
REMARK   95  A    between atoms: _226  and  _228
REMARK   96  A    between atoms: _228  and  _229
REMARK   97  A    between atoms: _228  and  _231
REMARK   98  A    between atoms: _233  and  _235
REMARK   99  A    between atoms: _235  and  _236
REMARK  100  A    between atoms: _235  and  _238
REMARK  101  A    between atoms: _238  and  _239
REMARK  102  A    between atoms: _240  and  _242
REMARK  103  A    between atoms: _242  and  _243
REMARK  104  A    between atoms: _242  and  _245
REMARK  105  A    between atoms: _245  and  _246
REMARK  106  A    between atoms: _252  and  _254
REMARK  107  A    between atoms: _254  and  _255
REMARK  108  A    between atoms: _254  and  _257
REMARK  109  A    between atoms: _257  and  _258
REMARK  110  A    between atoms: _263  and  _265
REMARK  111  A    between atoms: _265  and  _266
REMARK  112  A    between atoms: _265  and  _268
REMARK  113  A    between atoms: _268  and  _269
REMARK  114  A    between atoms: _272  and  _274
REMARK  115  A    between atoms: _274  and  _275
REMARK  116  A    between atoms: _274  and  _277
REMARK  117  A    between atoms: _277  and  _278
REMARK  118  A    between atoms: _283  and  _284
REMARK  119  A    between atoms: _286  and  _288
REMARK  120  A    between atoms: _288  and  _289
REMARK  121  A    between atoms: _288  and  _291
REMARK  122  A    between atoms: _291  and  _292
REMARK  123  A    between atoms: _292  and  _293
REMARK  124  A    between atoms: _293  and  _294
REMARK  125  A    between atoms: _294  and  _295
REMARK  126  A    between atoms: _299  and  _301
REMARK  127  A    between atoms: _301  and  _302
REMARK  128  A    between atoms: _301  and  _304
REMARK  129  A    between atoms: _304  and  _305
REMARK  130  A    between atoms: _308  and  _310
REMARK  131  A    between atoms: _310  and  _311
REMARK  132  A    between atoms: _314  and  _316
REMARK  133  A    between atoms: _316  and  _317
REMARK  134  A    between atoms: _316  and  _319
REMARK  135  A    between atoms: _319  and  _320
REMARK                            x       y       z     vdW  Elec       q    Type
REMARK                         _______ _______ _______ _____ _____    ______ ____
ROOT
ATOM      1  CA  ASP A   1     -13.565   5.058  -1.803  0.00  0.00    +0.113 C 
ENDROOT
BRANCH   1   2
ATOM      2  N   ASP A   1     -12.190   4.557  -1.837  0.00  0.00    -0.244 NA
ATOM      3  H   ASP A   1     -11.406   5.208  -1.630  0.00  0.00    +0.141 HD
ENDBRANCH   1   2
BRANCH   1   4
ATOM      4  C   ASP A   1     -14.068   5.150  -3.235  0.00  0.00    +0.200 C 
ATOM      5  O   ASP A   1     -15.279   4.818  -3.516  0.00  0.00    -0.219 OA
ENDBRANCH   1   4
BRANCH   1   6
ATOM      6  CB  ASP A   1     -13.584   6.484  -1.188  0.00  0.00    +0.134 C 
BRANCH   6   7
ATOM      7  CG  ASP A   1     -13.443   6.475   0.305  0.00  0.00    +0.366 C 
ATOM      8  OD2 ASP A   1     -13.477   7.573   0.914  0.00  0.00    -0.246 OA
ATOM      9  OD1 ASP A   1     -13.321   5.418   0.893  0.00  0.00    -0.246 OA
ENDBRANCH   6   7
ENDBRANCH   1   6
TORSDOF 4
REMARK  Name = ../refined-set-2016/4qgd/4qgd_pocket.pdb
REMARK  135 active torsions:
REMARK  status: ('A' for Active; 'I' for Inactive)
REMARK    1  A    between atoms: _1  and  _5
REMARK    2  A    between atoms: _5  and  _6
REMARK    3  A    between atoms: _5  and  _8
REMARK    4  A    between atoms: _8  and  _9
REMARK    5  A    between atoms: _11  and  _13
REMARK    6  A    between atoms: _13  and  _14
REMARK    7  A    between atoms: _13  and  _16
REMARK    8  A    between atoms: _16  and  _17
REMARK    9  A    between atoms: _20  and  _22
REMARK   10  A    between atoms: _22  and  _23
REMARK   11  A    between atoms: _22  and  _25
REMARK   12  A    between atoms: _25  and  _26
REMARK   13  A    between atoms: _29  and  _31
REMARK   14  A    between atoms: _31  and  _32
REMARK   15  A    between atoms: _31  and  _34
REMARK   16  A    between atoms: _34  and  _35
REMARK   17  A    between atoms: _35  and  _36
REMARK   18  A    between atoms: _39  and  _41
REMARK   19  A    between atoms: _41  and  _42
REMARK   20  A    between atoms: _41  and  _44
REMARK   21  A    between atoms: _44  and  _45
REMARK   22  A    between atoms: _51  and  _53
REMARK   23  A    between atoms: _53  and  _54
REMARK   24  A    between atoms: _56  and  _58
REMARK   25  A    between atoms: _58  and  _59
REMARK   26  A    between atoms: _58  and  _61
REMARK   27  A    between atoms: _61  and  _62
REMARK   28  A    between atoms: _62  and  _63
REMARK   29  A    between atoms: _63  and  _64
REMARK   30  A    between atoms: _64  and  _65
REMARK   31  A    between atoms: _69  and  _71
REMARK   32  A    between atoms: _71  and  _72
REMARK   33  A    between atoms: _71  and  _74
REMARK   34  A    between atoms: _74  and  _75
REMARK   35  A    between atoms: _75  and  _76
REMARK   36  A    between atoms: _78  and  _80
REMARK   37  A    between atoms: _80  and  _81
REMARK   38  A    between atoms: _80  and  _83
REMARK   39  A    between atoms: _83  and  _84
REMARK   40  A    between atoms: _87  and  _89
REMARK   41  A    between atoms: _89  and  _90
REMARK   42  A    between atoms: _89  and  _92
REMARK   43  A    between atoms: _92  and  _93
REMARK   44  A    between atoms: _96  and  _98
REMARK   45  A    between atoms: _98  and  _99
REMARK   46  A    between atoms: _98  and  _101
REMARK   47  A    between atoms: _101  and  _102
REMARK   48  A    between atoms: _105  and  _107
REMARK   49  A    between atoms: _107  and  _108
REMARK   50  A    between atoms: _111  and  _113
REMARK   51  A    between atoms: _113  and  _114
REMARK   52  A    between atoms: _113  and  _116
REMARK   53  A    between atoms: _116  and  _117
REMARK   54  A    between atoms: _121  and  _122
REMARK   55  A    between atoms: _127  and  _129
REMARK   56  A    between atoms: _129  and  _130
REMARK   57  A    between atoms: _129  and  _132
REMARK   58  A    between atoms: _132  and  _133
REMARK   59  A    between atoms: _135  and  _137
REMARK   60  A    between atoms: _137  and  _138
REMARK   61  A    between atoms: _137  and  _140
REMARK   62  A    between atoms: _140  and  _141
REMARK   63  A    between atoms: _146  and  _147
REMARK   64  A    between atoms: _149  and  _151
REMARK   65  A    between atoms: _151  and  _152
REMARK   66  A    between atoms: _151  and  _154
REMARK   67  A    between atoms: _154  and  _155
REMARK   68  A    between atoms: _157  and  _159
REMARK   69  A    between atoms: _159  and  _160
REMARK   70  A    between atoms: _159  and  _162
REMARK   71  A    between atoms: _162  and  _163
REMARK   72  A    between atoms: _165  and  _167
REMARK   73  A    between atoms: _167  and  _168
REMARK   74  A    between atoms: _167  and  _170
REMARK   75  A    between atoms: _170  and  _171
REMARK   76  A    between atoms: _176  and  _177
REMARK   77  A    between atoms: _179  and  _181
REMARK   78  A    between atoms: _181  and  _182
REMARK   79  A    between atoms: _181  and  _184
REMARK   80  A    between atoms: _184  and  _185
REMARK   81  A    between atoms: _190  and  _191
REMARK   82  A    between atoms: _193  and  _195
REMARK   83  A    between atoms: _195  and  _196
REMARK   84  A    between atoms: _195  and  _198
REMARK   85  A    between atoms: _198  and  _199
REMARK   86  A    between atoms: _199  and  _239
REMARK   87  A    between atoms: _200  and  _202
REMARK   88  A    between atoms: _202  and  _203
REMARK   89  A    between atoms: _205  and  _207
REMARK   90  A    between atoms: _207  and  _208
REMARK   91  A    between atoms: _207  and  _210
REMARK   92  A    between atoms: _210  and  _211
REMARK   93  A    between atoms: _221  and  _223
REMARK   94  A    between atoms: _223  and  _224
REMARK   95  A    between atoms: _226  and  _228
REMARK   96  A    between atoms: _228  and  _229
REMARK   97  A    between atoms: _228  and  _231
REMARK   98  A    between atoms: _233  and  _235
REMARK   99  A    between atoms: _235  and  _236
REMARK  100  A    between atoms: _235  and  _238
REMARK  101  A    between atoms: _238  and  _239
REMARK  102  A    between atoms: _240  and  _242
REMARK  103  A    between atoms: _242  and  _243
REMARK  104  A    between atoms: _242  and  _245
REMARK  105  A    between atoms: _245  and  _246
REMARK  106  A    between atoms: _252  and  _254
REMARK  107  A    between atoms: _254  and  _255
REMARK  108  A    between atoms: _254  and  _257
REMARK  109  A    between atoms: _257  and  _258
REMARK  110  A    between atoms: _263  and  _265
REMARK  111  A    between atoms: _265  and  _266
REMARK  112  A    between atoms: _265  and  _268
REMARK  113  A    between atoms: _268  and  _269
REMARK  114  A    between atoms: _272  and  _274
REMARK  115  A    between atoms: _274  and  _275
REMARK  116  A    between atoms: _274  and  _277
REMARK  117  A    between atoms: _277  and  _278
REMARK  118  A    between atoms: _283  and  _284
REMARK  119  A    between atoms: _286  and  _288
REMARK  120  A    between atoms: _288  and  _289
REMARK  121  A    between atoms: _288  and  _291
REMARK  122  A    between atoms: _291  and  _292
REMARK  123  A    between atoms: _292  and  _293
REMARK  124  A    between atoms: _293  and  _294
REMARK  125  A    between atoms: _294  and  _295
REMARK  126  A    between atoms: _299  and  _301
REMARK  127  A    between atoms: _301  and  _302
REMARK  128  A    between atoms: _301  and  _304
REMARK  129  A    between atoms: _304  and  _305
REMARK  130  A    between atoms: _308  and  _310
REMARK  131  A    between atoms: _310  and  _311
REMARK  132  A    between atoms: _314  and  _316
REMARK  133  A    between atoms: _316  and  _317
REMARK  134  A    between atoms: _316  and  _319
REMARK  135  A    between atoms: _319  and  _320
REMARK                            x       y       z     vdW  Elec       q    Type
REMARK                         _______ _______ _______ _____ _____    ______ ____
ROOT
ATOM      1  CA  ALA A   1     -16.496   1.365  -3.726  0.00  0.00    +0.133 C 
ATOM      2  CB  ALA A   1     -16.438   1.705  -2.236  0.00  0.00    +0.027 C 
ENDROOT
BRANCH   1   3
ATOM      3  N   ALA A   1     -15.239   1.728  -4.372  0.00  0.00    -0.239 NA
ATOM      4  H   ALA A   1     -14.506   2.212  -3.815  0.00  0.00    +0.142 HD
ENDBRANCH   1   3
BRANCH   1   5
ATOM      5  C   ALA A   1     -17.682   2.029  -4.353  0.00  0.00    +0.224 C 
ATOM      6  O   ALA A   1     -18.684   1.375  -4.590  0.00  0.00    -0.287 OA
ENDBRANCH   1   5
TORSDOF 2
REMARK  Name = ../refined-set-2016/4qgd/4qgd_pocket.pdb
REMARK  135 active torsions:
REMARK  status: ('A' for Active; 'I' for Inactive)
REMARK    1  A    between atoms: _1  and  _5
REMARK    2  A    between atoms: _5  and  _6
REMARK    3  A    between atoms: _5  and  _8
REMARK    4  A    between atoms: _8  and  _9
REMARK    5  A    between atoms: _11  and  _13
REMARK    6  A    between atoms: _13  and  _14
REMARK    7  A    between atoms: _13  and  _16
REMARK    8  A    between atoms: _16  and  _17
REMARK    9  A    between atoms: _20  and  _22
REMARK   10  A    between atoms: _22  and  _23
REMARK   11  A    between atoms: _22  and  _25
REMARK   12  A    between atoms: _25  and  _26
REMARK   13  A    between atoms: _29  and  _31
REMARK   14  A    between atoms: _31  and  _32
REMARK   15  A    between atoms: _31  and  _34
REMARK   16  A    between atoms: _34  and  _35
REMARK   17  A    between atoms: _35  and  _36
REMARK   18  A    between atoms: _39  and  _41
REMARK   19  A    between atoms: _41  and  _42
REMARK   20  A    between atoms: _41  and  _44
REMARK   21  A    between atoms: _44  and  _45
REMARK   22  A    between atoms: _51  and  _53
REMARK   23  A    between atoms: _53  and  _54
REMARK   24  A    between atoms: _56  and  _58
REMARK   25  A    between atoms: _58  and  _59
REMARK   26  A    between atoms: _58  and  _61
REMARK   27  A    between atoms: _61  and  _62
REMARK   28  A    between atoms: _62  and  _63
REMARK   29  A    between atoms: _63  and  _64
REMARK   30  A    between atoms: _64  and  _65
REMARK   31  A    between atoms: _69  and  _71
REMARK   32  A    between atoms: _71  and  _72
REMARK   33  A    between atoms: _71  and  _74
REMARK   34  A    between atoms: _74  and  _75
REMARK   35  A    between atoms: _75  and  _76
REMARK   36  A    between atoms: _78  and  _80
REMARK   37  A    between atoms: _80  and  _81
REMARK   38  A    between atoms: _80  and  _83
REMARK   39  A    between atoms: _83  and  _84
REMARK   40  A    between atoms: _87  and  _89
REMARK   41  A    between atoms: _89  and  _90
REMARK   42  A    between atoms: _89  and  _92
REMARK   43  A    between atoms: _92  and  _93
REMARK   44  A    between atoms: _96  and  _98
REMARK   45  A    between atoms: _98  and  _99
REMARK   46  A    between atoms: _98  and  _101
REMARK   47  A    between atoms: _101  and  _102
REMARK   48  A    between atoms: _105  and  _107
REMARK   49  A    between atoms: _107  and  _108
REMARK   50  A    between atoms: _111  and  _113
REMARK   51  A    between atoms: _113  and  _114
REMARK   52  A    between atoms: _113  and  _116
REMARK   53  A    between atoms: _116  and  _117
REMARK   54  A    between atoms: _121  and  _122
REMARK   55  A    between atoms: _127  and  _129
REMARK   56  A    between atoms: _129  and  _130
REMARK   57  A    between atoms: _129  and  _132
REMARK   58  A    between atoms: _132  and  _133
REMARK   59  A    between atoms: _135  and  _137
REMARK   60  A    between atoms: _137  and  _138
REMARK   61  A    between atoms: _137  and  _140
REMARK   62  A    between atoms: _140  and  _141
REMARK   63  A    between atoms: _146  and  _147
REMARK   64  A    between atoms: _149  and  _151
REMARK   65  A    between atoms: _151  and  _152
REMARK   66  A    between atoms: _151  and  _154
REMARK   67  A    between atoms: _154  and  _155
REMARK   68  A    between atoms: _157  and  _159
REMARK   69  A    between atoms: _159  and  _160
REMARK   70  A    between atoms: _159  and  _162
REMARK   71  A    between atoms: _162  and  _163
REMARK   72  A    between atoms: _165  and  _167
REMARK   73  A    between atoms: _167  and  _168
REMARK   74  A    between atoms: _167  and  _170
REMARK   75  A    between atoms: _170  and  _171
REMARK   76  A    between atoms: _176  and  _177
REMARK   77  A    between atoms: _179  and  _181
REMARK   78  A    between atoms: _181  and  _182
REMARK   79  A    between atoms: _181  and  _184
REMARK   80  A    between atoms: _184  and  _185
REMARK   81  A    between atoms: _190  and  _191
REMARK   82  A    between atoms: _193  and  _195
REMARK   83  A    between atoms: _195  and  _196
REMARK   84  A    between atoms: _195  and  _198
REMARK   85  A    between atoms: _198  and  _199
REMARK   86  A    between atoms: _199  and  _239
REMARK   87  A    between atoms: _200  and  _202
REMARK   88  A    between atoms: _202  and  _203
REMARK   89  A    between atoms: _205  and  _207
REMARK   90  A    between atoms: _207  and  _208
REMARK   91  A    between atoms: _207  and  _210
REMARK   92  A    between atoms: _210  and  _211
REMARK   93  A    between atoms: _221  and  _223
REMARK   94  A    between atoms: _223  and  _224
REMARK   95  A    between atoms: _226  and  _228
REMARK   96  A    between atoms: _228  and  _229
REMARK   97  A    between atoms: _228  and  _231
REMARK   98  A    between atoms: _233  and  _235
REMARK   99  A    between atoms: _235  and  _236
REMARK  100  A    between atoms: _235  and  _238
REMARK  101  A    between atoms: _238  and  _239
REMARK  102  A    between atoms: _240  and  _242
REMARK  103  A    between atoms: _242  and  _243
REMARK  104  A    between atoms: _242  and  _245
REMARK  105  A    between atoms: _245  and  _246
REMARK  106  A    between atoms: _252  and  _254
REMARK  107  A    between atoms: _254  and  _255
REMARK  108  A    between atoms: _254  and  _257
REMARK  109  A    between atoms: _257  and  _258
REMARK  110  A    between atoms: _263  and  _265
REMARK  111  A    between atoms: _265  and  _266
REMARK  112  A    between atoms: _265  and  _268
REMARK  113  A    between atoms: _268  and  _269
REMARK  114  A    between atoms: _272  and  _274
REMARK  115  A    between atoms: _274  and  _275
REMARK  116  A    between atoms: _274  and  _277
REMARK  117  A    between atoms: _277  and  _278
REMARK  118  A    between atoms: _283  and  _284
REMARK  119  A    between atoms: _286  and  _288
REMARK  120  A    between atoms: _288  and  _289
REMARK  121  A    between atoms: _288  and  _291
REMARK  122  A    between atoms: _291  and  _292
REMARK  123  A    between atoms: _292  and  _293
REMARK  124  A    between atoms: _293  and  _294
REMARK  125  A    between atoms: _294  and  _295
REMARK  126  A    between atoms: _299  and  _301
REMARK  127  A    between atoms: _301  and  _302
REMARK  128  A    between atoms: _301  and  _304
REMARK  129  A    between atoms: _304  and  _305
REMARK  130  A    between atoms: _308  and  _310
REMARK  131  A    between atoms: _310  and  _311
REMARK  132  A    between atoms: _314  and  _316
REMARK  133  A    between atoms: _316  and  _317
REMARK  134  A    between atoms: _316  and  _319
REMARK  135  A    between atoms: _319  and  _320
REMARK                            x       y       z     vdW  Elec       q    Type
REMARK                         _______ _______ _______ _____ _____    ______ ____
ROOT
ATOM      1  CB  PHE A   1     -22.317   1.428  -4.865  0.00  0.00    +0.051 C 
ENDROOT
BRANCH   1   2
ATOM      2  CG  PHE A   1     -21.792   1.117  -3.479  0.00  0.00    -0.020 A 
ATOM      3  CD2 PHE A   1     -21.437   2.139  -2.620  0.00  0.00    -0.004 A 
ATOM      4  CE2 PHE A   1     -20.971   1.887  -1.322  0.00  0.00    -0.000 A 
ATOM      5  CZ  PHE A   1     -20.865   0.582  -0.892  0.00  0.00    -0.000 A 
ATOM      6  CE1 PHE A   1     -21.245  -0.480  -1.725  0.00  0.00    -0.000 A 
ATOM      7  CD1 PHE A   1     -21.696  -0.220  -3.021  0.00  0.00    -0.004 A 
ENDBRANCH   1   2
BRANCH   1   8
ATOM      8  CA  PHE A   1     -22.071   0.310  -5.928  0.00  0.00    +0.137 C 
BRANCH   8   9
ATOM      9  N   PHE A   1     -20.624   0.223  -6.285  0.00  0.00    -0.239 NA
ATOM     10  H   PHE A   1     -19.923   0.865  -5.864  0.00  0.00    +0.142 HD
ENDBRANCH   8   9
BRANCH   8  11
ATOM     11  C   PHE A   1     -22.855   0.614  -7.222  0.00  0.00    +0.224 C 
ATOM     12  O   PHE A   1     -23.866   0.008  -7.462  0.00  0.00    -0.287 OA
ENDBRANCH   8  11
ENDBRANCH   1   8
TORSDOF 4
REMARK  Name = ../refined-set-2016/4qgd/4qgd_pocket.pdb
REMARK  135 active torsions:
REMARK  status: ('A' for Active; 'I' for Inactive)
REMARK    1  A    between atoms: _1  and  _5
REMARK    2  A    between atoms: _5  and  _6
REMARK    3  A    between atoms: _5  and  _8
REMARK    4  A    between atoms: _8  and  _9
REMARK    5  A    between atoms: _11  and  _13
REMARK    6  A    between atoms: _13  and  _14
REMARK    7  A    between atoms: _13  and  _16
REMARK    8  A    between atoms: _16  and  _17
REMARK    9  A    between atoms: _20  and  _22
REMARK   10  A    between atoms: _22  and  _23
REMARK   11  A    between atoms: _22  and  _25
REMARK   12  A    between atoms: _25  and  _26
REMARK   13  A    between atoms: _29  and  _31
REMARK   14  A    between atoms: _31  and  _32
REMARK   15  A    between atoms: _31  and  _34
REMARK   16  A    between atoms: _34  and  _35
REMARK   17  A    between atoms: _35  and  _36
REMARK   18  A    between atoms: _39  and  _41
REMARK   19  A    between atoms: _41  and  _42
REMARK   20  A    between atoms: _41  and  _44
REMARK   21  A    between atoms: _44  and  _45
REMARK   22  A    between atoms: _51  and  _53
REMARK   23  A    between atoms: _53  and  _54
REMARK   24  A    between atoms: _56  and  _58
REMARK   25  A    between atoms: _58  and  _59
REMARK   26  A    between atoms: _58  and  _61
REMARK   27  A    between atoms: _61  and  _62
REMARK   28  A    between atoms: _62  and  _63
REMARK   29  A    between atoms: _63  and  _64
REMARK   30  A    between atoms: _64  and  _65
REMARK   31  A    between atoms: _69  and  _71
REMARK   32  A    between atoms: _71  and  _72
REMARK   33  A    between atoms: _71  and  _74
REMARK   34  A    between atoms: _74  and  _75
REMARK   35  A    between atoms: _75  and  _76
REMARK   36  A    between atoms: _78  and  _80
REMARK   37  A    between atoms: _80  and  _81
REMARK   38  A    between atoms: _80  and  _83
REMARK   39  A    between atoms: _83  and  _84
REMARK   40  A    between atoms: _87  and  _89
REMARK   41  A    between atoms: _89  and  _90
REMARK   42  A    between atoms: _89  and  _92
REMARK   43  A    between atoms: _92  and  _93
REMARK   44  A    between atoms: _96  and  _98
REMARK   45  A    between atoms: _98  and  _99
REMARK   46  A    between atoms: _98  and  _101
REMARK   47  A    between atoms: _101  and  _102
REMARK   48  A    between atoms: _105  and  _107
REMARK   49  A    between atoms: _107  and  _108
REMARK   50  A    between atoms: _111  and  _113
REMARK   51  A    between atoms: _113  and  _114
REMARK   52  A    between atoms: _113  and  _116
REMARK   53  A    between atoms: _116  and  _117
REMARK   54  A    between atoms: _121  and  _122
REMARK   55  A    between atoms: _127  and  _129
REMARK   56  A    between atoms: _129  and  _130
REMARK   57  A    between atoms: _129  and  _132
REMARK   58  A    between atoms: _132  and  _133
REMARK   59  A    between atoms: _135  and  _137
REMARK   60  A    between atoms: _137  and  _138
REMARK   61  A    between atoms: _137  and  _140
REMARK   62  A    between atoms: _140  and  _141
REMARK   63  A    between atoms: _146  and  _147
REMARK   64  A    between atoms: _149  and  _151
REMARK   65  A    between atoms: _151  and  _152
REMARK   66  A    between atoms: _151  and  _154
REMARK   67  A    between atoms: _154  and  _155
REMARK   68  A    between atoms: _157  and  _159
REMARK   69  A    between atoms: _159  and  _160
REMARK   70  A    between atoms: _159  and  _162
REMARK   71  A    between atoms: _162  and  _163
REMARK   72  A    between atoms: _165  and  _167
REMARK   73  A    between atoms: _167  and  _168
REMARK   74  A    between atoms: _167  and  _170
REMARK   75  A    between atoms: _170  and  _171
REMARK   76  A    between atoms: _176  and  _177
REMARK   77  A    between atoms: _179  and  _181
REMARK   78  A    between atoms: _181  and  _182
REMARK   79  A    between atoms: _181  and  _184
REMARK   80  A    between atoms: _184  and  _185
REMARK   81  A    between atoms: _190  and  _191
REMARK   82  A    between atoms: _193  and  _195
REMARK   83  A    between atoms: _195  and  _196
REMARK   84  A    between atoms: _195  and  _198
REMARK   85  A    between atoms: _198  and  _199
REMARK   86  A    between atoms: _199  and  _239
REMARK   87  A    between atoms: _200  and  _202
REMARK   88  A    between atoms: _202  and  _203
REMARK   89  A    between atoms: _205  and  _207
REMARK   90  A    between atoms: _207  and  _208
REMARK   91  A    between atoms: _207  and  _210
REMARK   92  A    between atoms: _210  and  _211
REMARK   93  A    between atoms: _221  and  _223
REMARK   94  A    between atoms: _223  and  _224
REMARK   95  A    between atoms: _226  and  _228
REMARK   96  A    between atoms: _228  and  _229
REMARK   97  A    between atoms: _228  and  _231
REMARK   98  A    between atoms: _233  and  _235
REMARK   99  A    between atoms: _235  and  _236
REMARK  100  A    between atoms: _235  and  _238
REMARK  101  A    between atoms: _238  and  _239
REMARK  102  A    between atoms: _240  and  _242
REMARK  103  A    between atoms: _242  and  _243
REMARK  104  A    between atoms: _242  and  _245
REMARK  105  A    between atoms: _245  and  _246
REMARK  106  A    between atoms: _252  and  _254
REMARK  107  A    between atoms: _254  and  _255
REMARK  108  A    between atoms: _254  and  _257
REMARK  109  A    between atoms: _257  and  _258
REMARK  110  A    between atoms: _263  and  _265
REMARK  111  A    between atoms: _265  and  _266
REMARK  112  A    between atoms: _265  and  _268
REMARK  113  A    between atoms: _268  and  _269
REMARK  114  A    between atoms: _272  and  _274
REMARK  115  A    between atoms: _274  and  _275
REMARK  116  A    between atoms: _274  and  _277
REMARK  117  A    between atoms: _277  and  _278
REMARK  118  A    between atoms: _283  and  _284
REMARK  119  A    between atoms: _286  and  _288
REMARK  120  A    between atoms: _288  and  _289
REMARK  121  A    between atoms: _288  and  _291
REMARK  122  A    between atoms: _291  and  _292
REMARK  123  A    between atoms: _292  and  _293
REMARK  124  A    between atoms: _293  and  _294
REMARK  125  A    between atoms: _294  and  _295
REMARK  126  A    between atoms: _299  and  _301
REMARK  127  A    between atoms: _301  and  _302
REMARK  128  A    between atoms: _301  and  _304
REMARK  129  A    between atoms: _304  and  _305
REMARK  130  A    between atoms: _308  and  _310
REMARK  131  A    between atoms: _310  and  _311
REMARK  132  A    between atoms: _314  and  _316
REMARK  133  A    between atoms: _316  and  _317
REMARK  134  A    between atoms: _316  and  _319
REMARK  135  A    between atoms: _319  and  _320
REMARK                            x       y       z     vdW  Elec       q    Type
REMARK                         _______ _______ _______ _____ _____    ______ ____
ROOT
ATOM      1  O   HOH     1     -16.749  -2.763   8.899  0.00  0.00    +0.000 OA
ENDROOT
TORSDOF 0
REMARK  Name = ../refined-set-2016/4qgd/4qgd_pocket.pdb
REMARK  135 active torsions:
REMARK  status: ('A' for Active; 'I' for Inactive)
REMARK    1  A    between atoms: _1  and  _5
REMARK    2  A    between atoms: _5  and  _6
REMARK    3  A    between atoms: _5  and  _8
REMARK    4  A    between atoms: _8  and  _9
REMARK    5  A    between atoms: _11  and  _13
REMARK    6  A    between atoms: _13  and  _14
REMARK    7  A    between atoms: _13  and  _16
REMARK    8  A    between atoms: _16  and  _17
REMARK    9  A    between atoms: _20  and  _22
REMARK   10  A    between atoms: _22  and  _23
REMARK   11  A    between atoms: _22  and  _25
REMARK   12  A    between atoms: _25  and  _26
REMARK   13  A    between atoms: _29  and  _31
REMARK   14  A    between atoms: _31  and  _32
REMARK   15  A    between atoms: _31  and  _34
REMARK   16  A    between atoms: _34  and  _35
REMARK   17  A    between atoms: _35  and  _36
REMARK   18  A    between atoms: _39  and  _41
REMARK   19  A    between atoms: _41  and  _42
REMARK   20  A    between atoms: _41  and  _44
REMARK   21  A    between atoms: _44  and  _45
REMARK   22  A    between atoms: _51  and  _53
REMARK   23  A    between atoms: _53  and  _54
REMARK   24  A    between atoms: _56  and  _58
REMARK   25  A    between atoms: _58  and  _59
REMARK   26  A    between atoms: _58  and  _61
REMARK   27  A    between atoms: _61  and  _62
REMARK   28  A    between atoms: _62  and  _63
REMARK   29  A    between atoms: _63  and  _64
REMARK   30  A    between atoms: _64  and  _65
REMARK   31  A    between atoms: _69  and  _71
REMARK   32  A    between atoms: _71  and  _72
REMARK   33  A    between atoms: _71  and  _74
REMARK   34  A    between atoms: _74  and  _75
REMARK   35  A    between atoms: _75  and  _76
REMARK   36  A    between atoms: _78  and  _80
REMARK   37  A    between atoms: _80  and  _81
REMARK   38  A    between atoms: _80  and  _83
REMARK   39  A    between atoms: _83  and  _84
REMARK   40  A    between atoms: _87  and  _89
REMARK   41  A    between atoms: _89  and  _90
REMARK   42  A    between atoms: _89  and  _92
REMARK   43  A    between atoms: _92  and  _93
REMARK   44  A    between atoms: _96  and  _98
REMARK   45  A    between atoms: _98  and  _99
REMARK   46  A    between atoms: _98  and  _101
REMARK   47  A    between atoms: _101  and  _102
REMARK   48  A    between atoms: _105  and  _107
REMARK   49  A    between atoms: _107  and  _108
REMARK   50  A    between atoms: _111  and  _113
REMARK   51  A    between atoms: _113  and  _114
REMARK   52  A    between atoms: _113  and  _116
REMARK   53  A    between atoms: _116  and  _117
REMARK   54  A    between atoms: _121  and  _122
REMARK   55  A    between atoms: _127  and  _129
REMARK   56  A    between atoms: _129  and  _130
REMARK   57  A    between atoms: _129  and  _132
REMARK   58  A    between atoms: _132  and  _133
REMARK   59  A    between atoms: _135  and  _137
REMARK   60  A    between atoms: _137  and  _138
REMARK   61  A    between atoms: _137  and  _140
REMARK   62  A    between atoms: _140  and  _141
REMARK   63  A    between atoms: _146  and  _147
REMARK   64  A    between atoms: _149  and  _151
REMARK   65  A    between atoms: _151  and  _152
REMARK   66  A    between atoms: _151  and  _154
REMARK   67  A    between atoms: _154  and  _155
REMARK   68  A    between atoms: _157  and  _159
REMARK   69  A    between atoms: _159  and  _160
REMARK   70  A    between atoms: _159  and  _162
REMARK   71  A    between atoms: _162  and  _163
REMARK   72  A    between atoms: _165  and  _167
REMARK   73  A    between atoms: _167  and  _168
REMARK   74  A    between atoms: _167  and  _170
REMARK   75  A    between atoms: _170  and  _171
REMARK   76  A    between atoms: _176  and  _177
REMARK   77  A    between atoms: _179  and  _181
REMARK   78  A    between atoms: _181  and  _182
REMARK   79  A    between atoms: _181  and  _184
REMARK   80  A    between atoms: _184  and  _185
REMARK   81  A    between atoms: _190  and  _191
REMARK   82  A    between atoms: _193  and  _195
REMARK   83  A    between atoms: _195  and  _196
REMARK   84  A    between atoms: _195  and  _198
REMARK   85  A    between atoms: _198  and  _199
REMARK   86  A    between atoms: _199  and  _239
REMARK   87  A    between atoms: _200  and  _202
REMARK   88  A    between atoms: _202  and  _203
REMARK   89  A    between atoms: _205  and  _207
REMARK   90  A    between atoms: _207  and  _208
REMARK   91  A    between atoms: _207  and  _210
REMARK   92  A    between atoms: _210  and  _211
REMARK   93  A    between atoms: _221  and  _223
REMARK   94  A    between atoms: _223  and  _224
REMARK   95  A    between atoms: _226  and  _228
REMARK   96  A    between atoms: _228  and  _229
REMARK   97  A    between atoms: _228  and  _231
REMARK   98  A    between atoms: _233  and  _235
REMARK   99  A    between atoms: _235  and  _236
REMARK  100  A    between atoms: _235  and  _238
REMARK  101  A    between atoms: _238  and  _239
REMARK  102  A    between atoms: _240  and  _242
REMARK  103  A    between atoms: _242  and  _243
REMARK  104  A    between atoms: _242  and  _245
REMARK  105  A    between atoms: _245  and  _246
REMARK  106  A    between atoms: _252  and  _254
REMARK  107  A    between atoms: _254  and  _255
REMARK  108  A    between atoms: _254  and  _257
REMARK  109  A    between atoms: _257  and  _258
REMARK  110  A    between atoms: _263  and  _265
REMARK  111  A    between atoms: _265  and  _266
REMARK  112  A    between atoms: _265  and  _268
REMARK  113  A    between atoms: _268  and  _269
REMARK  114  A    between atoms: _272  and  _274
REMARK  115  A    between atoms: _274  and  _275
REMARK  116  A    between atoms: _274  and  _277
REMARK  117  A    between atoms: _277  and  _278
REMARK  118  A    between atoms: _283  and  _284
REMARK  119  A    between atoms: _286  and  _288
REMARK  120  A    between atoms: _288  and  _289
REMARK  121  A    between atoms: _288  and  _291
REMARK  122  A    between atoms: _291  and  _292
REMARK  123  A    between atoms: _292  and  _293
REMARK  124  A    between atoms: _293  and  _294
REMARK  125  A    between atoms: _294  and  _295
REMARK  126  A    between atoms: _299  and  _301
REMARK  127  A    between atoms: _301  and  _302
REMARK  128  A    between atoms: _301  and  _304
REMARK  129  A    between atoms: _304  and  _305
REMARK  130  A    between atoms: _308  and  _310
REMARK  131  A    between atoms: _310  and  _311
REMARK  132  A    between atoms: _314  and  _316
REMARK  133  A    between atoms: _316  and  _317
REMARK  134  A    between atoms: _316  and  _319
REMARK  135  A    between atoms: _319  and  _320
REMARK                            x       y       z     vdW  Elec       q    Type
REMARK                         _______ _______ _______ _____ _____    ______ ____
ROOT
ATOM      1  O   HOH     1     -24.814  10.157   0.828  0.00  0.00    +0.000 OA
ENDROOT
TORSDOF 0
REMARK  Name = ../refined-set-2016/4qgd/4qgd_pocket.pdb
REMARK  135 active torsions:
REMARK  status: ('A' for Active; 'I' for Inactive)
REMARK    1  A    between atoms: _1  and  _5
REMARK    2  A    between atoms: _5  and  _6
REMARK    3  A    between atoms: _5  and  _8
REMARK    4  A    between atoms: _8  and  _9
REMARK    5  A    between atoms: _11  and  _13
REMARK    6  A    between atoms: _13  and  _14
REMARK    7  A    between atoms: _13  and  _16
REMARK    8  A    between atoms: _16  and  _17
REMARK    9  A    between atoms: _20  and  _22
REMARK   10  A    between atoms: _22  and  _23
REMARK   11  A    between atoms: _22  and  _25
REMARK   12  A    between atoms: _25  and  _26
REMARK   13  A    between atoms: _29  and  _31
REMARK   14  A    between atoms: _31  and  _32
REMARK   15  A    between atoms: _31  and  _34
REMARK   16  A    between atoms: _34  and  _35
REMARK   17  A    between atoms: _35  and  _36
REMARK   18  A    between atoms: _39  and  _41
REMARK   19  A    between atoms: _41  and  _42
REMARK   20  A    between atoms: _41  and  _44
REMARK   21  A    between atoms: _44  and  _45
REMARK   22  A    between atoms: _51  and  _53
REMARK   23  A    between atoms: _53  and  _54
REMARK   24  A    between atoms: _56  and  _58
REMARK   25  A    between atoms: _58  and  _59
REMARK   26  A    between atoms: _58  and  _61
REMARK   27  A    between atoms: _61  and  _62
REMARK   28  A    between atoms: _62  and  _63
REMARK   29  A    between atoms: _63  and  _64
REMARK   30  A    between atoms: _64  and  _65
REMARK   31  A    between atoms: _69  and  _71
REMARK   32  A    between atoms: _71  and  _72
REMARK   33  A    between atoms: _71  and  _74
REMARK   34  A    between atoms: _74  and  _75
REMARK   35  A    between atoms: _75  and  _76
REMARK   36  A    between atoms: _78  and  _80
REMARK   37  A    between atoms: _80  and  _81
REMARK   38  A    between atoms: _80  and  _83
REMARK   39  A    between atoms: _83  and  _84
REMARK   40  A    between atoms: _87  and  _89
REMARK   41  A    between atoms: _89  and  _90
REMARK   42  A    between atoms: _89  and  _92
REMARK   43  A    between atoms: _92  and  _93
REMARK   44  A    between atoms: _96  and  _98
REMARK   45  A    between atoms: _98  and  _99
REMARK   46  A    between atoms: _98  and  _101
REMARK   47  A    between atoms: _101  and  _102
REMARK   48  A    between atoms: _105  and  _107
REMARK   49  A    between atoms: _107  and  _108
REMARK   50  A    between atoms: _111  and  _113
REMARK   51  A    between atoms: _113  and  _114
REMARK   52  A    between atoms: _113  and  _116
REMARK   53  A    between atoms: _116  and  _117
REMARK   54  A    between atoms: _121  and  _122
REMARK   55  A    between atoms: _127  and  _129
REMARK   56  A    between atoms: _129  and  _130
REMARK   57  A    between atoms: _129  and  _132
REMARK   58  A    between atoms: _132  and  _133
REMARK   59  A    between atoms: _135  and  _137
REMARK   60  A    between atoms: _137  and  _138
REMARK   61  A    between atoms: _137  and  _140
REMARK   62  A    between atoms: _140  and  _141
REMARK   63  A    between atoms: _146  and  _147
REMARK   64  A    between atoms: _149  and  _151
REMARK   65  A    between atoms: _151  and  _152
REMARK   66  A    between atoms: _151  and  _154
REMARK   67  A    between atoms: _154  and  _155
REMARK   68  A    between atoms: _157  and  _159
REMARK   69  A    between atoms: _159  and  _160
REMARK   70  A    between atoms: _159  and  _162
REMARK   71  A    between atoms: _162  and  _163
REMARK   72  A    between atoms: _165  and  _167
REMARK   73  A    between atoms: _167  and  _168
REMARK   74  A    between atoms: _167  and  _170
REMARK   75  A    between atoms: _170  and  _171
REMARK   76  A    between atoms: _176  and  _177
REMARK   77  A    between atoms: _179  and  _181
REMARK   78  A    between atoms: _181  and  _182
REMARK   79  A    between atoms: _181  and  _184
REMARK   80  A    between atoms: _184  and  _185
REMARK   81  A    between atoms: _190  and  _191
REMARK   82  A    between atoms: _193  and  _195
REMARK   83  A    between atoms: _195  and  _196
REMARK   84  A    between atoms: _195  and  _198
REMARK   85  A    between atoms: _198  and  _199
REMARK   86  A    between atoms: _199  and  _239
REMARK   87  A    between atoms: _200  and  _202
REMARK   88  A    between atoms: _202  and  _203
REMARK   89  A    between atoms: _205  and  _207
REMARK   90  A    between atoms: _207  and  _208
REMARK   91  A    between atoms: _207  and  _210
REMARK   92  A    between atoms: _210  and  _211
REMARK   93  A    between atoms: _221  and  _223
REMARK   94  A    between atoms: _223  and  _224
REMARK   95  A    between atoms: _226  and  _228
REMARK   96  A    between atoms: _228  and  _229
REMARK   97  A    between atoms: _228  and  _231
REMARK   98  A    between atoms: _233  and  _235
REMARK   99  A    between atoms: _235  and  _236
REMARK  100  A    between atoms: _235  and  _238
REMARK  101  A    between atoms: _238  and  _239
REMARK  102  A    between atoms: _240  and  _242
REMARK  103  A    between atoms: _242  and  _243
REMARK  104  A    between atoms: _242  and  _245
REMARK  105  A    between atoms: _245  and  _246
REMARK  106  A    between atoms: _252  and  _254
REMARK  107  A    between atoms: _254  and  _255
REMARK  108  A    between atoms: _254  and  _257
REMARK  109  A    between atoms: _257  and  _258
REMARK  110  A    between atoms: _263  and  _265
REMARK  111  A    between atoms: _265  and  _266
REMARK  112  A    between atoms: _265  and  _268
REMARK  113  A    between atoms: _268  and  _269
REMARK  114  A    between atoms: _272  and  _274
REMARK  115  A    between atoms: _274  and  _275
REMARK  116  A    between atoms: _274  and  _277
REMARK  117  A    between atoms: _277  and  _278
REMARK  118  A    between atoms: _283  and  _284
REMARK  119  A    between atoms: _286  and  _288
REMARK  120  A    between atoms: _288  and  _289
REMARK  121  A    between atoms: _288  and  _291
REMARK  122  A    between atoms: _291  and  _292
REMARK  123  A    between atoms: _292  and  _293
REMARK  124  A    between atoms: _293  and  _294
REMARK  125  A    between atoms: _294  and  _295
REMARK  126  A    between atoms: _299  and  _301
REMARK  127  A    between atoms: _301  and  _302
REMARK  128  A    between atoms: _301  and  _304
REMARK  129  A    between atoms: _304  and  _305
REMARK  130  A    between atoms: _308  and  _310
REMARK  131  A    between atoms: _310  and  _311
REMARK  132  A    between atoms: _314  and  _316
REMARK  133  A    between atoms: _316  and  _317
REMARK  134  A    between atoms: _316  and  _319
REMARK  135  A    between atoms: _319  and  _320
REMARK                            x       y       z     vdW  Elec       q    Type
REMARK                         _______ _______ _______ _____ _____    ______ ____
ROOT
ATOM      1  O   HOH     1     -17.021  -0.688   3.339  0.00  0.00    +0.000 OA
ENDROOT
TORSDOF 0
REMARK  Name = ../refined-set-2016/4qgd/4qgd_pocket.pdb
REMARK  135 active torsions:
REMARK  status: ('A' for Active; 'I' for Inactive)
REMARK    1  A    between atoms: _1  and  _5
REMARK    2  A    between atoms: _5  and  _6
REMARK    3  A    between atoms: _5  and  _8
REMARK    4  A    between atoms: _8  and  _9
REMARK    5  A    between atoms: _11  and  _13
REMARK    6  A    between atoms: _13  and  _14
REMARK    7  A    between atoms: _13  and  _16
REMARK    8  A    between atoms: _16  and  _17
REMARK    9  A    between atoms: _20  and  _22
REMARK   10  A    between atoms: _22  and  _23
REMARK   11  A    between atoms: _22  and  _25
REMARK   12  A    between atoms: _25  and  _26
REMARK   13  A    between atoms: _29  and  _31
REMARK   14  A    between atoms: _31  and  _32
REMARK   15  A    between atoms: _31  and  _34
REMARK   16  A    between atoms: _34  and  _35
REMARK   17  A    between atoms: _35  and  _36
REMARK   18  A    between atoms: _39  and  _41
REMARK   19  A    between atoms: _41  and  _42
REMARK   20  A    between atoms: _41  and  _44
REMARK   21  A    between atoms: _44  and  _45
REMARK   22  A    between atoms: _51  and  _53
REMARK   23  A    between atoms: _53  and  _54
REMARK   24  A    between atoms: _56  and  _58
REMARK   25  A    between atoms: _58  and  _59
REMARK   26  A    between atoms: _58  and  _61
REMARK   27  A    between atoms: _61  and  _62
REMARK   28  A    between atoms: _62  and  _63
REMARK   29  A    between atoms: _63  and  _64
REMARK   30  A    between atoms: _64  and  _65
REMARK   31  A    between atoms: _69  and  _71
REMARK   32  A    between atoms: _71  and  _72
REMARK   33  A    between atoms: _71  and  _74
REMARK   34  A    between atoms: _74  and  _75
REMARK   35  A    between atoms: _75  and  _76
REMARK   36  A    between atoms: _78  and  _80
REMARK   37  A    between atoms: _80  and  _81
REMARK   38  A    between atoms: _80  and  _83
REMARK   39  A    between atoms: _83  and  _84
REMARK   40  A    between atoms: _87  and  _89
REMARK   41  A    between atoms: _89  and  _90
REMARK   42  A    between atoms: _89  and  _92
REMARK   43  A    between atoms: _92  and  _93
REMARK   44  A    between atoms: _96  and  _98
REMARK   45  A    between atoms: _98  and  _99
REMARK   46  A    between atoms: _98  and  _101
REMARK   47  A    between atoms: _101  and  _102
REMARK   48  A    between atoms: _105  and  _107
REMARK   49  A    between atoms: _107  and  _108
REMARK   50  A    between atoms: _111  and  _113
REMARK   51  A    between atoms: _113  and  _114
REMARK   52  A    between atoms: _113  and  _116
REMARK   53  A    between atoms: _116  and  _117
REMARK   54  A    between atoms: _121  and  _122
REMARK   55  A    between atoms: _127  and  _129
REMARK   56  A    between atoms: _129  and  _130
REMARK   57  A    between atoms: _129  and  _132
REMARK   58  A    between atoms: _132  and  _133
REMARK   59  A    between atoms: _135  and  _137
REMARK   60  A    between atoms: _137  and  _138
REMARK   61  A    between atoms: _137  and  _140
REMARK   62  A    between atoms: _140  and  _141
REMARK   63  A    between atoms: _146  and  _147
REMARK   64  A    between atoms: _149  and  _151
REMARK   65  A    between atoms: _151  and  _152
REMARK   66  A    between atoms: _151  and  _154
REMARK   67  A    between atoms: _154  and  _155
REMARK   68  A    between atoms: _157  and  _159
REMARK   69  A    between atoms: _159  and  _160
REMARK   70  A    between atoms: _159  and  _162
REMARK   71  A    between atoms: _162  and  _163
REMARK   72  A    between atoms: _165  and  _167
REMARK   73  A    between atoms: _167  and  _168
REMARK   74  A    between atoms: _167  and  _170
REMARK   75  A    between atoms: _170  and  _171
REMARK   76  A    between atoms: _176  and  _177
REMARK   77  A    between atoms: _179  and  _181
REMARK   78  A    between atoms: _181  and  _182
REMARK   79  A    between atoms: _181  and  _184
REMARK   80  A    between atoms: _184  and  _185
REMARK   81  A    between atoms: _190  and  _191
REMARK   82  A    between atoms: _193  and  _195
REMARK   83  A    between atoms: _195  and  _196
REMARK   84  A    between atoms: _195  and  _198
REMARK   85  A    between atoms: _198  and  _199
REMARK   86  A    between atoms: _199  and  _239
REMARK   87  A    between atoms: _200  and  _202
REMARK   88  A    between atoms: _202  and  _203
REMARK   89  A    between atoms: _205  and  _207
REMARK   90  A    between atoms: _207  and  _208
REMARK   91  A    between atoms: _207  and  _210
REMARK   92  A    between atoms: _210  and  _211
REMARK   93  A    between atoms: _221  and  _223
REMARK   94  A    between atoms: _223  and  _224
REMARK   95  A    between atoms: _226  and  _228
REMARK   96  A    between atoms: _228  and  _229
REMARK   97  A    between atoms: _228  and  _231
REMARK   98  A    between atoms: _233  and  _235
REMARK   99  A    between atoms: _235  and  _236
REMARK  100  A    between atoms: _235  and  _238
REMARK  101  A    between atoms: _238  and  _239
REMARK  102  A    between atoms: _240  and  _242
REMARK  103  A    between atoms: _242  and  _243
REMARK  104  A    between atoms: _242  and  _245
REMARK  105  A    between atoms: _245  and  _246
REMARK  106  A    between atoms: _252  and  _254
REMARK  107  A    between atoms: _254  and  _255
REMARK  108  A    between atoms: _254  and  _257
REMARK  109  A    between atoms: _257  and  _258
REMARK  110  A    between atoms: _263  and  _265
REMARK  111  A    between atoms: _265  and  _266
REMARK  112  A    between atoms: _265  and  _268
REMARK  113  A    between atoms: _268  and  _269
REMARK  114  A    between atoms: _272  and  _274
REMARK  115  A    between atoms: _274  and  _275
REMARK  116  A    between atoms: _274  and  _277
REMARK  117  A    between atoms: _277  and  _278
REMARK  118  A    between atoms: _283  and  _284
REMARK  119  A    between atoms: _286  and  _288
REMARK  120  A    between atoms: _288  and  _289
REMARK  121  A    between atoms: _288  and  _291
REMARK  122  A    between atoms: _291  and  _292
REMARK  123  A    between atoms: _292  and  _293
REMARK  124  A    between atoms: _293  and  _294
REMARK  125  A    between atoms: _294  and  _295
REMARK  126  A    between atoms: _299  and  _301
REMARK  127  A    between atoms: _301  and  _302
REMARK  128  A    between atoms: _301  and  _304
REMARK  129  A    between atoms: _304  and  _305
REMARK  130  A    between atoms: _308  and  _310
REMARK  131  A    between atoms: _310  and  _311
REMARK  132  A    between atoms: _314  and  _316
REMARK  133  A    between atoms: _316  and  _317
REMARK  134  A    between atoms: _316  and  _319
REMARK  135  A    between atoms: _319  and  _320
REMARK                            x       y       z     vdW  Elec       q    Type
REMARK                         _______ _______ _______ _____ _____    ______ ____
ROOT
ATOM      1  O   HOH     1     -24.509  13.163   1.401  0.00  0.00    +0.000 OA
ENDROOT
TORSDOF 0
REMARK  Name = ../refined-set-2016/4qgd/4qgd_pocket.pdb
REMARK  135 active torsions:
REMARK  status: ('A' for Active; 'I' for Inactive)
REMARK    1  A    between atoms: _1  and  _5
REMARK    2  A    between atoms: _5  and  _6
REMARK    3  A    between atoms: _5  and  _8
REMARK    4  A    between atoms: _8  and  _9
REMARK    5  A    between atoms: _11  and  _13
REMARK    6  A    between atoms: _13  and  _14
REMARK    7  A    between atoms: _13  and  _16
REMARK    8  A    between atoms: _16  and  _17
REMARK    9  A    between atoms: _20  and  _22
REMARK   10  A    between atoms: _22  and  _23
REMARK   11  A    between atoms: _22  and  _25
REMARK   12  A    between atoms: _25  and  _26
REMARK   13  A    between atoms: _29  and  _31
REMARK   14  A    between atoms: _31  and  _32
REMARK   15  A    between atoms: _31  and  _34
REMARK   16  A    between atoms: _34  and  _35
REMARK   17  A    between atoms: _35  and  _36
REMARK   18  A    between atoms: _39  and  _41
REMARK   19  A    between atoms: _41  and  _42
REMARK   20  A    between atoms: _41  and  _44
REMARK   21  A    between atoms: _44  and  _45
REMARK   22  A    between atoms: _51  and  _53
REMARK   23  A    between atoms: _53  and  _54
REMARK   24  A    between atoms: _56  and  _58
REMARK   25  A    between atoms: _58  and  _59
REMARK   26  A    between atoms: _58  and  _61
REMARK   27  A    between atoms: _61  and  _62
REMARK   28  A    between atoms: _62  and  _63
REMARK   29  A    between atoms: _63  and  _64
REMARK   30  A    between atoms: _64  and  _65
REMARK   31  A    between atoms: _69  and  _71
REMARK   32  A    between atoms: _71  and  _72
REMARK   33  A    between atoms: _71  and  _74
REMARK   34  A    between atoms: _74  and  _75
REMARK   35  A    between atoms: _75  and  _76
REMARK   36  A    between atoms: _78  and  _80
REMARK   37  A    between atoms: _80  and  _81
REMARK   38  A    between atoms: _80  and  _83
REMARK   39  A    between atoms: _83  and  _84
REMARK   40  A    between atoms: _87  and  _89
REMARK   41  A    between atoms: _89  and  _90
REMARK   42  A    between atoms: _89  and  _92
REMARK   43  A    between atoms: _92  and  _93
REMARK   44  A    between atoms: _96  and  _98
REMARK   45  A    between atoms: _98  and  _99
REMARK   46  A    between atoms: _98  and  _101
REMARK   47  A    between atoms: _101  and  _102
REMARK   48  A    between atoms: _105  and  _107
REMARK   49  A    between atoms: _107  and  _108
REMARK   50  A    between atoms: _111  and  _113
REMARK   51  A    between atoms: _113  and  _114
REMARK   52  A    between atoms: _113  and  _116
REMARK   53  A    between atoms: _116  and  _117
REMARK   54  A    between atoms: _121  and  _122
REMARK   55  A    between atoms: _127  and  _129
REMARK   56  A    between atoms: _129  and  _130
REMARK   57  A    between atoms: _129  and  _132
REMARK   58  A    between atoms: _132  and  _133
REMARK   59  A    between atoms: _135  and  _137
REMARK   60  A    between atoms: _137  and  _138
REMARK   61  A    between atoms: _137  and  _140
REMARK   62  A    between atoms: _140  and  _141
REMARK   63  A    between atoms: _146  and  _147
REMARK   64  A    between atoms: _149  and  _151
REMARK   65  A    between atoms: _151  and  _152
REMARK   66  A    between atoms: _151  and  _154
REMARK   67  A    between atoms: _154  and  _155
REMARK   68  A    between atoms: _157  and  _159
REMARK   69  A    between atoms: _159  and  _160
REMARK   70  A    between atoms: _159  and  _162
REMARK   71  A    between atoms: _162  and  _163
REMARK   72  A    between atoms: _165  and  _167
REMARK   73  A    between atoms: _167  and  _168
REMARK   74  A    between atoms: _167  and  _170
REMARK   75  A    between atoms: _170  and  _171
REMARK   76  A    between atoms: _176  and  _177
REMARK   77  A    between atoms: _179  and  _181
REMARK   78  A    between atoms: _181  and  _182
REMARK   79  A    between atoms: _181  and  _184
REMARK   80  A    between atoms: _184  and  _185
REMARK   81  A    between atoms: _190  and  _191
REMARK   82  A    between atoms: _193  and  _195
REMARK   83  A    between atoms: _195  and  _196
REMARK   84  A    between atoms: _195  and  _198
REMARK   85  A    between atoms: _198  and  _199
REMARK   86  A    between atoms: _199  and  _239
REMARK   87  A    between atoms: _200  and  _202
REMARK   88  A    between atoms: _202  and  _203
REMARK   89  A    between atoms: _205  and  _207
REMARK   90  A    between atoms: _207  and  _208
REMARK   91  A    between atoms: _207  and  _210
REMARK   92  A    between atoms: _210  and  _211
REMARK   93  A    between atoms: _221  and  _223
REMARK   94  A    between atoms: _223  and  _224
REMARK   95  A    between atoms: _226  and  _228
REMARK   96  A    between atoms: _228  and  _229
REMARK   97  A    between atoms: _228  and  _231
REMARK   98  A    between atoms: _233  and  _235
REMARK   99  A    between atoms: _235  and  _236
REMARK  100  A    between atoms: _235  and  _238
REMARK  101  A    between atoms: _238  and  _239
REMARK  102  A    between atoms: _240  and  _242
REMARK  103  A    between atoms: _242  and  _243
REMARK  104  A    between atoms: _242  and  _245
REMARK  105  A    between atoms: _245  and  _246
REMARK  106  A    between atoms: _252  and  _254
REMARK  107  A    between atoms: _254  and  _255
REMARK  108  A    between atoms: _254  and  _257
REMARK  109  A    between atoms: _257  and  _258
REMARK  110  A    between atoms: _263  and  _265
REMARK  111  A    between atoms: _265  and  _266
REMARK  112  A    between atoms: _265  and  _268
REMARK  113  A    between atoms: _268  and  _269
REMARK  114  A    between atoms: _272  and  _274
REMARK  115  A    between atoms: _274  and  _275
REMARK  116  A    between atoms: _274  and  _277
REMARK  117  A    between atoms: _277  and  _278
REMARK  118  A    between atoms: _283  and  _284
REMARK  119  A    between atoms: _286  and  _288
REMARK  120  A    between atoms: _288  and  _289
REMARK  121  A    between atoms: _288  and  _291
REMARK  122  A    between atoms: _291  and  _292
REMARK  123  A    between atoms: _292  and  _293
REMARK  124  A    between atoms: _293  and  _294
REMARK  125  A    between atoms: _294  and  _295
REMARK  126  A    between atoms: _299  and  _301
REMARK  127  A    between atoms: _301  and  _302
REMARK  128  A    between atoms: _301  and  _304
REMARK  129  A    between atoms: _304  and  _305
REMARK  130  A    between atoms: _308  and  _310
REMARK  131  A    between atoms: _310  and  _311
REMARK  132  A    between atoms: _314  and  _316
REMARK  133  A    between atoms: _316  and  _317
REMARK  134  A    between atoms: _316  and  _319
REMARK  135  A    between atoms: _319  and  _320
REMARK                            x       y       z     vdW  Elec       q    Type
REMARK                         _______ _______ _______ _____ _____    ______ ____
ROOT
ATOM      1  O   HOH     1     -25.494   9.724   3.700  0.00  0.00    +0.000 OA
ENDROOT
TORSDOF 0
REMARK  Name = ../refined-set-2016/4qgd/4qgd_pocket.pdb
REMARK  135 active torsions:
REMARK  status: ('A' for Active; 'I' for Inactive)
REMARK    1  A    between atoms: _1  and  _5
REMARK    2  A    between atoms: _5  and  _6
REMARK    3  A    between atoms: _5  and  _8
REMARK    4  A    between atoms: _8  and  _9
REMARK    5  A    between atoms: _11  and  _13
REMARK    6  A    between atoms: _13  and  _14
REMARK    7  A    between atoms: _13  and  _16
REMARK    8  A    between atoms: _16  and  _17
REMARK    9  A    between atoms: _20  and  _22
REMARK   10  A    between atoms: _22  and  _23
REMARK   11  A    between atoms: _22  and  _25
REMARK   12  A    between atoms: _25  and  _26
REMARK   13  A    between atoms: _29  and  _31
REMARK   14  A    between atoms: _31  and  _32
REMARK   15  A    between atoms: _31  and  _34
REMARK   16  A    between atoms: _34  and  _35
REMARK   17  A    between atoms: _35  and  _36
REMARK   18  A    between atoms: _39  and  _41
REMARK   19  A    between atoms: _41  and  _42
REMARK   20  A    between atoms: _41  and  _44
REMARK   21  A    between atoms: _44  and  _45
REMARK   22  A    between atoms: _51  and  _53
REMARK   23  A    between atoms: _53  and  _54
REMARK   24  A    between atoms: _56  and  _58
REMARK   25  A    between atoms: _58  and  _59
REMARK   26  A    between atoms: _58  and  _61
REMARK   27  A    between atoms: _61  and  _62
REMARK   28  A    between atoms: _62  and  _63
REMARK   29  A    between atoms: _63  and  _64
REMARK   30  A    between atoms: _64  and  _65
REMARK   31  A    between atoms: _69  and  _71
REMARK   32  A    between atoms: _71  and  _72
REMARK   33  A    between atoms: _71  and  _74
REMARK   34  A    between atoms: _74  and  _75
REMARK   35  A    between atoms: _75  and  _76
REMARK   36  A    between atoms: _78  and  _80
REMARK   37  A    between atoms: _80  and  _81
REMARK   38  A    between atoms: _80  and  _83
REMARK   39  A    between atoms: _83  and  _84
REMARK   40  A    between atoms: _87  and  _89
REMARK   41  A    between atoms: _89  and  _90
REMARK   42  A    between atoms: _89  and  _92
REMARK   43  A    between atoms: _92  and  _93
REMARK   44  A    between atoms: _96  and  _98
REMARK   45  A    between atoms: _98  and  _99
REMARK   46  A    between atoms: _98  and  _101
REMARK   47  A    between atoms: _101  and  _102
REMARK   48  A    between atoms: _105  and  _107
REMARK   49  A    between atoms: _107  and  _108
REMARK   50  A    between atoms: _111  and  _113
REMARK   51  A    between atoms: _113  and  _114
REMARK   52  A    between atoms: _113  and  _116
REMARK   53  A    between atoms: _116  and  _117
REMARK   54  A    between atoms: _121  and  _122
REMARK   55  A    between atoms: _127  and  _129
REMARK   56  A    between atoms: _129  and  _130
REMARK   57  A    between atoms: _129  and  _132
REMARK   58  A    between atoms: _132  and  _133
REMARK   59  A    between atoms: _135  and  _137
REMARK   60  A    between atoms: _137  and  _138
REMARK   61  A    between atoms: _137  and  _140
REMARK   62  A    between atoms: _140  and  _141
REMARK   63  A    between atoms: _146  and  _147
REMARK   64  A    between atoms: _149  and  _151
REMARK   65  A    between atoms: _151  and  _152
REMARK   66  A    between atoms: _151  and  _154
REMARK   67  A    between atoms: _154  and  _155
REMARK   68  A    between atoms: _157  and  _159
REMARK   69  A    between atoms: _159  and  _160
REMARK   70  A    between atoms: _159  and  _162
REMARK   71  A    between atoms: _162  and  _163
REMARK   72  A    between atoms: _165  and  _167
REMARK   73  A    between atoms: _167  and  _168
REMARK   74  A    between atoms: _167  and  _170
REMARK   75  A    between atoms: _170  and  _171
REMARK   76  A    between atoms: _176  and  _177
REMARK   77  A    between atoms: _179  and  _181
REMARK   78  A    between atoms: _181  and  _182
REMARK   79  A    between atoms: _181  and  _184
REMARK   80  A    between atoms: _184  and  _185
REMARK   81  A    between atoms: _190  and  _191
REMARK   82  A    between atoms: _193  and  _195
REMARK   83  A    between atoms: _195  and  _196
REMARK   84  A    between atoms: _195  and  _198
REMARK   85  A    between atoms: _198  and  _199
REMARK   86  A    between atoms: _199  and  _239
REMARK   87  A    between atoms: _200  and  _202
REMARK   88  A    between atoms: _202  and  _203
REMARK   89  A    between atoms: _205  and  _207
REMARK   90  A    between atoms: _207  and  _208
REMARK   91  A    between atoms: _207  and  _210
REMARK   92  A    between atoms: _210  and  _211
REMARK   93  A    between atoms: _221  and  _223
REMARK   94  A    between atoms: _223  and  _224
REMARK   95  A    between atoms: _226  and  _228
REMARK   96  A    between atoms: _228  and  _229
REMARK   97  A    between atoms: _228  and  _231
REMARK   98  A    between atoms: _233  and  _235
REMARK   99  A    between atoms: _235  and  _236
REMARK  100  A    between atoms: _235  and  _238
REMARK  101  A    between atoms: _238  and  _239
REMARK  102  A    between atoms: _240  and  _242
REMARK  103  A    between atoms: _242  and  _243
REMARK  104  A    between atoms: _242  and  _245
REMARK  105  A    between atoms: _245  and  _246
REMARK  106  A    between atoms: _252  and  _254
REMARK  107  A    between atoms: _254  and  _255
REMARK  108  A    between atoms: _254  and  _257
REMARK  109  A    between atoms: _257  and  _258
REMARK  110  A    between atoms: _263  and  _265
REMARK  111  A    between atoms: _265  and  _266
REMARK  112  A    between atoms: _265  and  _268
REMARK  113  A    between atoms: _268  and  _269
REMARK  114  A    between atoms: _272  and  _274
REMARK  115  A    between atoms: _274  and  _275
REMARK  116  A    between atoms: _274  and  _277
REMARK  117  A    between atoms: _277  and  _278
REMARK  118  A    between atoms: _283  and  _284
REMARK  119  A    between atoms: _286  and  _288
REMARK  120  A    between atoms: _288  and  _289
REMARK  121  A    between atoms: _288  and  _291
REMARK  122  A    between atoms: _291  and  _292
REMARK  123  A    between atoms: _292  and  _293
REMARK  124  A    between atoms: _293  and  _294
REMARK  125  A    between atoms: _294  and  _295
REMARK  126  A    between atoms: _299  and  _301
REMARK  127  A    between atoms: _301  and  _302
REMARK  128  A    between atoms: _301  and  _304
REMARK  129  A    between atoms: _304  and  _305
REMARK  130  A    between atoms: _308  and  _310
REMARK  131  A    between atoms: _310  and  _311
REMARK  132  A    between atoms: _314  and  _316
REMARK  133  A    between atoms: _316  and  _317
REMARK  134  A    between atoms: _316  and  _319
REMARK  135  A    between atoms: _319  and  _320
REMARK                            x       y       z     vdW  Elec       q    Type
REMARK                         _______ _______ _______ _____ _____    ______ ____
ROOT
ATOM      1  O   HOH     1     -22.004  12.878   3.176  0.00  0.00    +0.000 OA
ENDROOT
TORSDOF 0
REMARK  Name = ../refined-set-2016/4qgd/4qgd_pocket.pdb
REMARK  135 active torsions:
REMARK  status: ('A' for Active; 'I' for Inactive)
REMARK    1  A    between atoms: _1  and  _5
REMARK    2  A    between atoms: _5  and  _6
REMARK    3  A    between atoms: _5  and  _8
REMARK    4  A    between atoms: _8  and  _9
REMARK    5  A    between atoms: _11  and  _13
REMARK    6  A    between atoms: _13  and  _14
REMARK    7  A    between atoms: _13  and  _16
REMARK    8  A    between atoms: _16  and  _17
REMARK    9  A    between atoms: _20  and  _22
REMARK   10  A    between atoms: _22  and  _23
REMARK   11  A    between atoms: _22  and  _25
REMARK   12  A    between atoms: _25  and  _26
REMARK   13  A    between atoms: _29  and  _31
REMARK   14  A    between atoms: _31  and  _32
REMARK   15  A    between atoms: _31  and  _34
REMARK   16  A    between atoms: _34  and  _35
REMARK   17  A    between atoms: _35  and  _36
REMARK   18  A    between atoms: _39  and  _41
REMARK   19  A    between atoms: _41  and  _42
REMARK   20  A    between atoms: _41  and  _44
REMARK   21  A    between atoms: _44  and  _45
REMARK   22  A    between atoms: _51  and  _53
REMARK   23  A    between atoms: _53  and  _54
REMARK   24  A    between atoms: _56  and  _58
REMARK   25  A    between atoms: _58  and  _59
REMARK   26  A    between atoms: _58  and  _61
REMARK   27  A    between atoms: _61  and  _62
REMARK   28  A    between atoms: _62  and  _63
REMARK   29  A    between atoms: _63  and  _64
REMARK   30  A    between atoms: _64  and  _65
REMARK   31  A    between atoms: _69  and  _71
REMARK   32  A    between atoms: _71  and  _72
REMARK   33  A    between atoms: _71  and  _74
REMARK   34  A    between atoms: _74  and  _75
REMARK   35  A    between atoms: _75  and  _76
REMARK   36  A    between atoms: _78  and  _80
REMARK   37  A    between atoms: _80  and  _81
REMARK   38  A    between atoms: _80  and  _83
REMARK   39  A    between atoms: _83  and  _84
REMARK   40  A    between atoms: _87  and  _89
REMARK   41  A    between atoms: _89  and  _90
REMARK   42  A    between atoms: _89  and  _92
REMARK   43  A    between atoms: _92  and  _93
REMARK   44  A    between atoms: _96  and  _98
REMARK   45  A    between atoms: _98  and  _99
REMARK   46  A    between atoms: _98  and  _101
REMARK   47  A    between atoms: _101  and  _102
REMARK   48  A    between atoms: _105  and  _107
REMARK   49  A    between atoms: _107  and  _108
REMARK   50  A    between atoms: _111  and  _113
REMARK   51  A    between atoms: _113  and  _114
REMARK   52  A    between atoms: _113  and  _116
REMARK   53  A    between atoms: _116  and  _117
REMARK   54  A    between atoms: _121  and  _122
REMARK   55  A    between atoms: _127  and  _129
REMARK   56  A    between atoms: _129  and  _130
REMARK   57  A    between atoms: _129  and  _132
REMARK   58  A    between atoms: _132  and  _133
REMARK   59  A    between atoms: _135  and  _137
REMARK   60  A    between atoms: _137  and  _138
REMARK   61  A    between atoms: _137  and  _140
REMARK   62  A    between atoms: _140  and  _141
REMARK   63  A    between atoms: _146  and  _147
REMARK   64  A    between atoms: _149  and  _151
REMARK   65  A    between atoms: _151  and  _152
REMARK   66  A    between atoms: _151  and  _154
REMARK   67  A    between atoms: _154  and  _155
REMARK   68  A    between atoms: _157  and  _159
REMARK   69  A    between atoms: _159  and  _160
REMARK   70  A    between atoms: _159  and  _162
REMARK   71  A    between atoms: _162  and  _163
REMARK   72  A    between atoms: _165  and  _167
REMARK   73  A    between atoms: _167  and  _168
REMARK   74  A    between atoms: _167  and  _170
REMARK   75  A    between atoms: _170  and  _171
REMARK   76  A    between atoms: _176  and  _177
REMARK   77  A    between atoms: _179  and  _181
REMARK   78  A    between atoms: _181  and  _182
REMARK   79  A    between atoms: _181  and  _184
REMARK   80  A    between atoms: _184  and  _185
REMARK   81  A    between atoms: _190  and  _191
REMARK   82  A    between atoms: _193  and  _195
REMARK   83  A    between atoms: _195  and  _196
REMARK   84  A    between atoms: _195  and  _198
REMARK   85  A    between atoms: _198  and  _199
REMARK   86  A    between atoms: _199  and  _239
REMARK   87  A    between atoms: _200  and  _202
REMARK   88  A    between atoms: _202  and  _203
REMARK   89  A    between atoms: _205  and  _207
REMARK   90  A    between atoms: _207  and  _208
REMARK   91  A    between atoms: _207  and  _210
REMARK   92  A    between atoms: _210  and  _211
REMARK   93  A    between atoms: _221  and  _223
REMARK   94  A    between atoms: _223  and  _224
REMARK   95  A    between atoms: _226  and  _228
REMARK   96  A    between atoms: _228  and  _229
REMARK   97  A    between atoms: _228  and  _231
REMARK   98  A    between atoms: _233  and  _235
REMARK   99  A    between atoms: _235  and  _236
REMARK  100  A    between atoms: _235  and  _238
REMARK  101  A    between atoms: _238  and  _239
REMARK  102  A    between atoms: _240  and  _242
REMARK  103  A    between atoms: _242  and  _243
REMARK  104  A    between atoms: _242  and  _245
REMARK  105  A    between atoms: _245  and  _246
REMARK  106  A    between atoms: _252  and  _254
REMARK  107  A    between atoms: _254  and  _255
REMARK  108  A    between atoms: _254  and  _257
REMARK  109  A    between atoms: _257  and  _258
REMARK  110  A    between atoms: _263  and  _265
REMARK  111  A    between atoms: _265  and  _266
REMARK  112  A    between atoms: _265  and  _268
REMARK  113  A    between atoms: _268  and  _269
REMARK  114  A    between atoms: _272  and  _274
REMARK  115  A    between atoms: _274  and  _275
REMARK  116  A    between atoms: _274  and  _277
REMARK  117  A    between atoms: _277  and  _278
REMARK  118  A    between atoms: _283  and  _284
REMARK  119  A    between atoms: _286  and  _288
REMARK  120  A    between atoms: _288  and  _289
REMARK  121  A    between atoms: _288  and  _291
REMARK  122  A    between atoms: _291  and  _292
REMARK  123  A    between atoms: _292  and  _293
REMARK  124  A    between atoms: _293  and  _294
REMARK  125  A    between atoms: _294  and  _295
REMARK  126  A    between atoms: _299  and  _301
REMARK  127  A    between atoms: _301  and  _302
REMARK  128  A    between atoms: _301  and  _304
REMARK  129  A    between atoms: _304  and  _305
REMARK  130  A    between atoms: _308  and  _310
REMARK  131  A    between atoms: _310  and  _311
REMARK  132  A    between atoms: _314  and  _316
REMARK  133  A    between atoms: _316  and  _317
REMARK  134  A    between atoms: _316  and  _319
REMARK  135  A    between atoms: _319  and  _320
REMARK                            x       y       z     vdW  Elec       q    Type
REMARK                         _______ _______ _______ _____ _____    ______ ____
ROOT
ATOM      1  O   HOH     1     -14.613   6.639   5.277  0.00  0.00    +0.000 OA
ENDROOT
TORSDOF 0
REMARK  Name = ../refined-set-2016/4qgd/4qgd_pocket.pdb
REMARK  135 active torsions:
REMARK  status: ('A' for Active; 'I' for Inactive)
REMARK    1  A    between atoms: _1  and  _5
REMARK    2  A    between atoms: _5  and  _6
REMARK    3  A    between atoms: _5  and  _8
REMARK    4  A    between atoms: _8  and  _9
REMARK    5  A    between atoms: _11  and  _13
REMARK    6  A    between atoms: _13  and  _14
REMARK    7  A    between atoms: _13  and  _16
REMARK    8  A    between atoms: _16  and  _17
REMARK    9  A    between atoms: _20  and  _22
REMARK   10  A    between atoms: _22  and  _23
REMARK   11  A    between atoms: _22  and  _25
REMARK   12  A    between atoms: _25  and  _26
REMARK   13  A    between atoms: _29  and  _31
REMARK   14  A    between atoms: _31  and  _32
REMARK   15  A    between atoms: _31  and  _34
REMARK   16  A    between atoms: _34  and  _35
REMARK   17  A    between atoms: _35  and  _36
REMARK   18  A    between atoms: _39  and  _41
REMARK   19  A    between atoms: _41  and  _42
REMARK   20  A    between atoms: _41  and  _44
REMARK   21  A    between atoms: _44  and  _45
REMARK   22  A    between atoms: _51  and  _53
REMARK   23  A    between atoms: _53  and  _54
REMARK   24  A    between atoms: _56  and  _58
REMARK   25  A    between atoms: _58  and  _59
REMARK   26  A    between atoms: _58  and  _61
REMARK   27  A    between atoms: _61  and  _62
REMARK   28  A    between atoms: _62  and  _63
REMARK   29  A    between atoms: _63  and  _64
REMARK   30  A    between atoms: _64  and  _65
REMARK   31  A    between atoms: _69  and  _71
REMARK   32  A    between atoms: _71  and  _72
REMARK   33  A    between atoms: _71  and  _74
REMARK   34  A    between atoms: _74  and  _75
REMARK   35  A    between atoms: _75  and  _76
REMARK   36  A    between atoms: _78  and  _80
REMARK   37  A    between atoms: _80  and  _81
REMARK   38  A    between atoms: _80  and  _83
REMARK   39  A    between atoms: _83  and  _84
REMARK   40  A    between atoms: _87  and  _89
REMARK   41  A    between atoms: _89  and  _90
REMARK   42  A    between atoms: _89  and  _92
REMARK   43  A    between atoms: _92  and  _93
REMARK   44  A    between atoms: _96  and  _98
REMARK   45  A    between atoms: _98  and  _99
REMARK   46  A    between atoms: _98  and  _101
REMARK   47  A    between atoms: _101  and  _102
REMARK   48  A    between atoms: _105  and  _107
REMARK   49  A    between atoms: _107  and  _108
REMARK   50  A    between atoms: _111  and  _113
REMARK   51  A    between atoms: _113  and  _114
REMARK   52  A    between atoms: _113  and  _116
REMARK   53  A    between atoms: _116  and  _117
REMARK   54  A    between atoms: _121  and  _122
REMARK   55  A    between atoms: _127  and  _129
REMARK   56  A    between atoms: _129  and  _130
REMARK   57  A    between atoms: _129  and  _132
REMARK   58  A    between atoms: _132  and  _133
REMARK   59  A    between atoms: _135  and  _137
REMARK   60  A    between atoms: _137  and  _138
REMARK   61  A    between atoms: _137  and  _140
REMARK   62  A    between atoms: _140  and  _141
REMARK   63  A    between atoms: _146  and  _147
REMARK   64  A    between atoms: _149  and  _151
REMARK   65  A    between atoms: _151  and  _152
REMARK   66  A    between atoms: _151  and  _154
REMARK   67  A    between atoms: _154  and  _155
REMARK   68  A    between atoms: _157  and  _159
REMARK   69  A    between atoms: _159  and  _160
REMARK   70  A    between atoms: _159  and  _162
REMARK   71  A    between atoms: _162  and  _163
REMARK   72  A    between atoms: _165  and  _167
REMARK   73  A    between atoms: _167  and  _168
REMARK   74  A    between atoms: _167  and  _170
REMARK   75  A    between atoms: _170  and  _171
REMARK   76  A    between atoms: _176  and  _177
REMARK   77  A    between atoms: _179  and  _181
REMARK   78  A    between atoms: _181  and  _182
REMARK   79  A    between atoms: _181  and  _184
REMARK   80  A    between atoms: _184  and  _185
REMARK   81  A    between atoms: _190  and  _191
REMARK   82  A    between atoms: _193  and  _195
REMARK   83  A    between atoms: _195  and  _196
REMARK   84  A    between atoms: _195  and  _198
REMARK   85  A    between atoms: _198  and  _199
REMARK   86  A    between atoms: _199  and  _239
REMARK   87  A    between atoms: _200  and  _202
REMARK   88  A    between atoms: _202  and  _203
REMARK   89  A    between atoms: _205  and  _207
REMARK   90  A    between atoms: _207  and  _208
REMARK   91  A    between atoms: _207  and  _210
REMARK   92  A    between atoms: _210  and  _211
REMARK   93  A    between atoms: _221  and  _223
REMARK   94  A    between atoms: _223  and  _224
REMARK   95  A    between atoms: _226  and  _228
REMARK   96  A    between atoms: _228  and  _229
REMARK   97  A    between atoms: _228  and  _231
REMARK   98  A    between atoms: _233  and  _235
REMARK   99  A    between atoms: _235  and  _236
REMARK  100  A    between atoms: _235  and  _238
REMARK  101  A    between atoms: _238  and  _239
REMARK  102  A    between atoms: _240  and  _242
REMARK  103  A    between atoms: _242  and  _243
REMARK  104  A    between atoms: _242  and  _245
REMARK  105  A    between atoms: _245  and  _246
REMARK  106  A    between atoms: _252  and  _254
REMARK  107  A    between atoms: _254  and  _255
REMARK  108  A    between atoms: _254  and  _257
REMARK  109  A    between atoms: _257  and  _258
REMARK  110  A    between atoms: _263  and  _265
REMARK  111  A    between atoms: _265  and  _266
REMARK  112  A    between atoms: _265  and  _268
REMARK  113  A    between atoms: _268  and  _269
REMARK  114  A    between atoms: _272  and  _274
REMARK  115  A    between atoms: _274  and  _275
REMARK  116  A    between atoms: _274  and  _277
REMARK  117  A    between atoms: _277  and  _278
REMARK  118  A    between atoms: _283  and  _284
REMARK  119  A    between atoms: _286  and  _288
REMARK  120  A    between atoms: _288  and  _289
REMARK  121  A    between atoms: _288  and  _291
REMARK  122  A    between atoms: _291  and  _292
REMARK  123  A    between atoms: _292  and  _293
REMARK  124  A    between atoms: _293  and  _294
REMARK  125  A    between atoms: _294  and  _295
REMARK  126  A    between atoms: _299  and  _301
REMARK  127  A    between atoms: _301  and  _302
REMARK  128  A    between atoms: _301  and  _304
REMARK  129  A    between atoms: _304  and  _305
REMARK  130  A    between atoms: _308  and  _310
REMARK  131  A    between atoms: _310  and  _311
REMARK  132  A    between atoms: _314  and  _316
REMARK  133  A    between atoms: _316  and  _317
REMARK  134  A    between atoms: _316  and  _319
REMARK  135  A    between atoms: _319  and  _320
REMARK                            x       y       z     vdW  Elec       q    Type
REMARK                         _______ _______ _______ _____ _____    ______ ____
ROOT
ATOM      1  O   HOH     1     -15.584  -0.089   7.339  0.00  0.00    +0.000 OA
ENDROOT
TORSDOF 0
REMARK  Name = ../refined-set-2016/4qgd/4qgd_pocket.pdb
REMARK  135 active torsions:
REMARK  status: ('A' for Active; 'I' for Inactive)
REMARK    1  A    between atoms: _1  and  _5
REMARK    2  A    between atoms: _5  and  _6
REMARK    3  A    between atoms: _5  and  _8
REMARK    4  A    between atoms: _8  and  _9
REMARK    5  A    between atoms: _11  and  _13
REMARK    6  A    between atoms: _13  and  _14
REMARK    7  A    between atoms: _13  and  _16
REMARK    8  A    between atoms: _16  and  _17
REMARK    9  A    between atoms: _20  and  _22
REMARK   10  A    between atoms: _22  and  _23
REMARK   11  A    between atoms: _22  and  _25
REMARK   12  A    between atoms: _25  and  _26
REMARK   13  A    between atoms: _29  and  _31
REMARK   14  A    between atoms: _31  and  _32
REMARK   15  A    between atoms: _31  and  _34
REMARK   16  A    between atoms: _34  and  _35
REMARK   17  A    between atoms: _35  and  _36
REMARK   18  A    between atoms: _39  and  _41
REMARK   19  A    between atoms: _41  and  _42
REMARK   20  A    between atoms: _41  and  _44
REMARK   21  A    between atoms: _44  and  _45
REMARK   22  A    between atoms: _51  and  _53
REMARK   23  A    between atoms: _53  and  _54
REMARK   24  A    between atoms: _56  and  _58
REMARK   25  A    between atoms: _58  and  _59
REMARK   26  A    between atoms: _58  and  _61
REMARK   27  A    between atoms: _61  and  _62
REMARK   28  A    between atoms: _62  and  _63
REMARK   29  A    between atoms: _63  and  _64
REMARK   30  A    between atoms: _64  and  _65
REMARK   31  A    between atoms: _69  and  _71
REMARK   32  A    between atoms: _71  and  _72
REMARK   33  A    between atoms: _71  and  _74
REMARK   34  A    between atoms: _74  and  _75
REMARK   35  A    between atoms: _75  and  _76
REMARK   36  A    between atoms: _78  and  _80
REMARK   37  A    between atoms: _80  and  _81
REMARK   38  A    between atoms: _80  and  _83
REMARK   39  A    between atoms: _83  and  _84
REMARK   40  A    between atoms: _87  and  _89
REMARK   41  A    between atoms: _89  and  _90
REMARK   42  A    between atoms: _89  and  _92
REMARK   43  A    between atoms: _92  and  _93
REMARK   44  A    between atoms: _96  and  _98
REMARK   45  A    between atoms: _98  and  _99
REMARK   46  A    between atoms: _98  and  _101
REMARK   47  A    between atoms: _101  and  _102
REMARK   48  A    between atoms: _105  and  _107
REMARK   49  A    between atoms: _107  and  _108
REMARK   50  A    between atoms: _111  and  _113
REMARK   51  A    between atoms: _113  and  _114
REMARK   52  A    between atoms: _113  and  _116
REMARK   53  A    between atoms: _116  and  _117
REMARK   54  A    between atoms: _121  and  _122
REMARK   55  A    between atoms: _127  and  _129
REMARK   56  A    between atoms: _129  and  _130
REMARK   57  A    between atoms: _129  and  _132
REMARK   58  A    between atoms: _132  and  _133
REMARK   59  A    between atoms: _135  and  _137
REMARK   60  A    between atoms: _137  and  _138
REMARK   61  A    between atoms: _137  and  _140
REMARK   62  A    between atoms: _140  and  _141
REMARK   63  A    between atoms: _146  and  _147
REMARK   64  A    between atoms: _149  and  _151
REMARK   65  A    between atoms: _151  and  _152
REMARK   66  A    between atoms: _151  and  _154
REMARK   67  A    between atoms: _154  and  _155
REMARK   68  A    between atoms: _157  and  _159
REMARK   69  A    between atoms: _159  and  _160
REMARK   70  A    between atoms: _159  and  _162
REMARK   71  A    between atoms: _162  and  _163
REMARK   72  A    between atoms: _165  and  _167
REMARK   73  A    between atoms: _167  and  _168
REMARK   74  A    between atoms: _167  and  _170
REMARK   75  A    between atoms: _170  and  _171
REMARK   76  A    between atoms: _176  and  _177
REMARK   77  A    between atoms: _179  and  _181
REMARK   78  A    between atoms: _181  and  _182
REMARK   79  A    between atoms: _181  and  _184
REMARK   80  A    between atoms: _184  and  _185
REMARK   81  A    between atoms: _190  and  _191
REMARK   82  A    between atoms: _193  and  _195
REMARK   83  A    between atoms: _195  and  _196
REMARK   84  A    between atoms: _195  and  _198
REMARK   85  A    between atoms: _198  and  _199
REMARK   86  A    between atoms: _199  and  _239
REMARK   87  A    between atoms: _200  and  _202
REMARK   88  A    between atoms: _202  and  _203
REMARK   89  A    between atoms: _205  and  _207
REMARK   90  A    between atoms: _207  and  _208
REMARK   91  A    between atoms: _207  and  _210
REMARK   92  A    between atoms: _210  and  _211
REMARK   93  A    between atoms: _221  and  _223
REMARK   94  A    between atoms: _223  and  _224
REMARK   95  A    between atoms: _226  and  _228
REMARK   96  A    between atoms: _228  and  _229
REMARK   97  A    between atoms: _228  and  _231
REMARK   98  A    between atoms: _233  and  _235
REMARK   99  A    between atoms: _235  and  _236
REMARK  100  A    between atoms: _235  and  _238
REMARK  101  A    between atoms: _238  and  _239
REMARK  102  A    between atoms: _240  and  _242
REMARK  103  A    between atoms: _242  and  _243
REMARK  104  A    between atoms: _242  and  _245
REMARK  105  A    between atoms: _245  and  _246
REMARK  106  A    between atoms: _252  and  _254
REMARK  107  A    between atoms: _254  and  _255
REMARK  108  A    between atoms: _254  and  _257
REMARK  109  A    between atoms: _257  and  _258
REMARK  110  A    between atoms: _263  and  _265
REMARK  111  A    between atoms: _265  and  _266
REMARK  112  A    between atoms: _265  and  _268
REMARK  113  A    between atoms: _268  and  _269
REMARK  114  A    between atoms: _272  and  _274
REMARK  115  A    between atoms: _274  and  _275
REMARK  116  A    between atoms: _274  and  _277
REMARK  117  A    between atoms: _277  and  _278
REMARK  118  A    between atoms: _283  and  _284
REMARK  119  A    between atoms: _286  and  _288
REMARK  120  A    between atoms: _288  and  _289
REMARK  121  A    between atoms: _288  and  _291
REMARK  122  A    between atoms: _291  and  _292
REMARK  123  A    between atoms: _292  and  _293
REMARK  124  A    between atoms: _293  and  _294
REMARK  125  A    between atoms: _294  and  _295
REMARK  126  A    between atoms: _299  and  _301
REMARK  127  A    between atoms: _301  and  _302
REMARK  128  A    between atoms: _301  and  _304
REMARK  129  A    between atoms: _304  and  _305
REMARK  130  A    between atoms: _308  and  _310
REMARK  131  A    between atoms: _310  and  _311
REMARK  132  A    between atoms: _314  and  _316
REMARK  133  A    between atoms: _316  and  _317
REMARK  134  A    between atoms: _316  and  _319
REMARK  135  A    between atoms: _319  and  _320
REMARK                            x       y       z     vdW  Elec       q    Type
REMARK                         _______ _______ _______ _____ _____    ______ ____
ROOT
ATOM      1  O   HOH     1     -22.835  -4.643   8.043  0.00  0.00    +0.000 OA
ENDROOT
TORSDOF 0
REMARK  Name = ../refined-set-2016/4qgd/4qgd_pocket.pdb
REMARK  135 active torsions:
REMARK  status: ('A' for Active; 'I' for Inactive)
REMARK    1  A    between atoms: _1  and  _5
REMARK    2  A    between atoms: _5  and  _6
REMARK    3  A    between atoms: _5  and  _8
REMARK    4  A    between atoms: _8  and  _9
REMARK    5  A    between atoms: _11  and  _13
REMARK    6  A    between atoms: _13  and  _14
REMARK    7  A    between atoms: _13  and  _16
REMARK    8  A    between atoms: _16  and  _17
REMARK    9  A    between atoms: _20  and  _22
REMARK   10  A    between atoms: _22  and  _23
REMARK   11  A    between atoms: _22  and  _25
REMARK   12  A    between atoms: _25  and  _26
REMARK   13  A    between atoms: _29  and  _31
REMARK   14  A    between atoms: _31  and  _32
REMARK   15  A    between atoms: _31  and  _34
REMARK   16  A    between atoms: _34  and  _35
REMARK   17  A    between atoms: _35  and  _36
REMARK   18  A    between atoms: _39  and  _41
REMARK   19  A    between atoms: _41  and  _42
REMARK   20  A    between atoms: _41  and  _44
REMARK   21  A    between atoms: _44  and  _45
REMARK   22  A    between atoms: _51  and  _53
REMARK   23  A    between atoms: _53  and  _54
REMARK   24  A    between atoms: _56  and  _58
REMARK   25  A    between atoms: _58  and  _59
REMARK   26  A    between atoms: _58  and  _61
REMARK   27  A    between atoms: _61  and  _62
REMARK   28  A    between atoms: _62  and  _63
REMARK   29  A    between atoms: _63  and  _64
REMARK   30  A    between atoms: _64  and  _65
REMARK   31  A    between atoms: _69  and  _71
REMARK   32  A    between atoms: _71  and  _72
REMARK   33  A    between atoms: _71  and  _74
REMARK   34  A    between atoms: _74  and  _75
REMARK   35  A    between atoms: _75  and  _76
REMARK   36  A    between atoms: _78  and  _80
REMARK   37  A    between atoms: _80  and  _81
REMARK   38  A    between atoms: _80  and  _83
REMARK   39  A    between atoms: _83  and  _84
REMARK   40  A    between atoms: _87  and  _89
REMARK   41  A    between atoms: _89  and  _90
REMARK   42  A    between atoms: _89  and  _92
REMARK   43  A    between atoms: _92  and  _93
REMARK   44  A    between atoms: _96  and  _98
REMARK   45  A    between atoms: _98  and  _99
REMARK   46  A    between atoms: _98  and  _101
REMARK   47  A    between atoms: _101  and  _102
REMARK   48  A    between atoms: _105  and  _107
REMARK   49  A    between atoms: _107  and  _108
REMARK   50  A    between atoms: _111  and  _113
REMARK   51  A    between atoms: _113  and  _114
REMARK   52  A    between atoms: _113  and  _116
REMARK   53  A    between atoms: _116  and  _117
REMARK   54  A    between atoms: _121  and  _122
REMARK   55  A    between atoms: _127  and  _129
REMARK   56  A    between atoms: _129  and  _130
REMARK   57  A    between atoms: _129  and  _132
REMARK   58  A    between atoms: _132  and  _133
REMARK   59  A    between atoms: _135  and  _137
REMARK   60  A    between atoms: _137  and  _138
REMARK   61  A    between atoms: _137  and  _140
REMARK   62  A    between atoms: _140  and  _141
REMARK   63  A    between atoms: _146  and  _147
REMARK   64  A    between atoms: _149  and  _151
REMARK   65  A    between atoms: _151  and  _152
REMARK   66  A    between atoms: _151  and  _154
REMARK   67  A    between atoms: _154  and  _155
REMARK   68  A    between atoms: _157  and  _159
REMARK   69  A    between atoms: _159  and  _160
REMARK   70  A    between atoms: _159  and  _162
REMARK   71  A    between atoms: _162  and  _163
REMARK   72  A    between atoms: _165  and  _167
REMARK   73  A    between atoms: _167  and  _168
REMARK   74  A    between atoms: _167  and  _170
REMARK   75  A    between atoms: _170  and  _171
REMARK   76  A    between atoms: _176  and  _177
REMARK   77  A    between atoms: _179  and  _181
REMARK   78  A    between atoms: _181  and  _182
REMARK   79  A    between atoms: _181  and  _184
REMARK   80  A    between atoms: _184  and  _185
REMARK   81  A    between atoms: _190  and  _191
REMARK   82  A    between atoms: _193  and  _195
REMARK   83  A    between atoms: _195  and  _196
REMARK   84  A    between atoms: _195  and  _198
REMARK   85  A    between atoms: _198  and  _199
REMARK   86  A    between atoms: _199  and  _239
REMARK   87  A    between atoms: _200  and  _202
REMARK   88  A    between atoms: _202  and  _203
REMARK   89  A    between atoms: _205  and  _207
REMARK   90  A    between atoms: _207  and  _208
REMARK   91  A    between atoms: _207  and  _210
REMARK   92  A    between atoms: _210  and  _211
REMARK   93  A    between atoms: _221  and  _223
REMARK   94  A    between atoms: _223  and  _224
REMARK   95  A    between atoms: _226  and  _228
REMARK   96  A    between atoms: _228  and  _229
REMARK   97  A    between atoms: _228  and  _231
REMARK   98  A    between atoms: _233  and  _235
REMARK   99  A    between atoms: _235  and  _236
REMARK  100  A    between atoms: _235  and  _238
REMARK  101  A    between atoms: _238  and  _239
REMARK  102  A    between atoms: _240  and  _242
REMARK  103  A    between atoms: _242  and  _243
REMARK  104  A    between atoms: _242  and  _245
REMARK  105  A    between atoms: _245  and  _246
REMARK  106  A    between atoms: _252  and  _254
REMARK  107  A    between atoms: _254  and  _255
REMARK  108  A    between atoms: _254  and  _257
REMARK  109  A    between atoms: _257  and  _258
REMARK  110  A    between atoms: _263  and  _265
REMARK  111  A    between atoms: _265  and  _266
REMARK  112  A    between atoms: _265  and  _268
REMARK  113  A    between atoms: _268  and  _269
REMARK  114  A    between atoms: _272  and  _274
REMARK  115  A    between atoms: _274  and  _275
REMARK  116  A    between atoms: _274  and  _277
REMARK  117  A    between atoms: _277  and  _278
REMARK  118  A    between atoms: _283  and  _284
REMARK  119  A    between atoms: _286  and  _288
REMARK  120  A    between atoms: _288  and  _289
REMARK  121  A    between atoms: _288  and  _291
REMARK  122  A    between atoms: _291  and  _292
REMARK  123  A    between atoms: _292  and  _293
REMARK  124  A    between atoms: _293  and  _294
REMARK  125  A    between atoms: _294  and  _295
REMARK  126  A    between atoms: _299  and  _301
REMARK  127  A    between atoms: _301  and  _302
REMARK  128  A    between atoms: _301  and  _304
REMARK  129  A    between atoms: _304  and  _305
REMARK  130  A    between atoms: _308  and  _310
REMARK  131  A    between atoms: _310  and  _311
REMARK  132  A    between atoms: _314  and  _316
REMARK  133  A    between atoms: _316  and  _317
REMARK  134  A    between atoms: _316  and  _319
REMARK  135  A    between atoms: _319  and  _320
REMARK                            x       y       z     vdW  Elec       q    Type
REMARK                         _______ _______ _______ _____ _____    ______ ____
ROOT
ATOM      1  O   HOH     1     -16.360  12.950   7.419  0.00  0.00    +0.000 OA
ENDROOT
TORSDOF 0
REMARK  Name = ../refined-set-2016/4qgd/4qgd_pocket.pdb
REMARK  135 active torsions:
REMARK  status: ('A' for Active; 'I' for Inactive)
REMARK    1  A    between atoms: _1  and  _5
REMARK    2  A    between atoms: _5  and  _6
REMARK    3  A    between atoms: _5  and  _8
REMARK    4  A    between atoms: _8  and  _9
REMARK    5  A    between atoms: _11  and  _13
REMARK    6  A    between atoms: _13  and  _14
REMARK    7  A    between atoms: _13  and  _16
REMARK    8  A    between atoms: _16  and  _17
REMARK    9  A    between atoms: _20  and  _22
REMARK   10  A    between atoms: _22  and  _23
REMARK   11  A    between atoms: _22  and  _25
REMARK   12  A    between atoms: _25  and  _26
REMARK   13  A    between atoms: _29  and  _31
REMARK   14  A    between atoms: _31  and  _32
REMARK   15  A    between atoms: _31  and  _34
REMARK   16  A    between atoms: _34  and  _35
REMARK   17  A    between atoms: _35  and  _36
REMARK   18  A    between atoms: _39  and  _41
REMARK   19  A    between atoms: _41  and  _42
REMARK   20  A    between atoms: _41  and  _44
REMARK   21  A    between atoms: _44  and  _45
REMARK   22  A    between atoms: _51  and  _53
REMARK   23  A    between atoms: _53  and  _54
REMARK   24  A    between atoms: _56  and  _58
REMARK   25  A    between atoms: _58  and  _59
REMARK   26  A    between atoms: _58  and  _61
REMARK   27  A    between atoms: _61  and  _62
REMARK   28  A    between atoms: _62  and  _63
REMARK   29  A    between atoms: _63  and  _64
REMARK   30  A    between atoms: _64  and  _65
REMARK   31  A    between atoms: _69  and  _71
REMARK   32  A    between atoms: _71  and  _72
REMARK   33  A    between atoms: _71  and  _74
REMARK   34  A    between atoms: _74  and  _75
REMARK   35  A    between atoms: _75  and  _76
REMARK   36  A    between atoms: _78  and  _80
REMARK   37  A    between atoms: _80  and  _81
REMARK   38  A    between atoms: _80  and  _83
REMARK   39  A    between atoms: _83  and  _84
REMARK   40  A    between atoms: _87  and  _89
REMARK   41  A    between atoms: _89  and  _90
REMARK   42  A    between atoms: _89  and  _92
REMARK   43  A    between atoms: _92  and  _93
REMARK   44  A    between atoms: _96  and  _98
REMARK   45  A    between atoms: _98  and  _99
REMARK   46  A    between atoms: _98  and  _101
REMARK   47  A    between atoms: _101  and  _102
REMARK   48  A    between atoms: _105  and  _107
REMARK   49  A    between atoms: _107  and  _108
REMARK   50  A    between atoms: _111  and  _113
REMARK   51  A    between atoms: _113  and  _114
REMARK   52  A    between atoms: _113  and  _116
REMARK   53  A    between atoms: _116  and  _117
REMARK   54  A    between atoms: _121  and  _122
REMARK   55  A    between atoms: _127  and  _129
REMARK   56  A    between atoms: _129  and  _130
REMARK   57  A    between atoms: _129  and  _132
REMARK   58  A    between atoms: _132  and  _133
REMARK   59  A    between atoms: _135  and  _137
REMARK   60  A    between atoms: _137  and  _138
REMARK   61  A    between atoms: _137  and  _140
REMARK   62  A    between atoms: _140  and  _141
REMARK   63  A    between atoms: _146  and  _147
REMARK   64  A    between atoms: _149  and  _151
REMARK   65  A    between atoms: _151  and  _152
REMARK   66  A    between atoms: _151  and  _154
REMARK   67  A    between atoms: _154  and  _155
REMARK   68  A    between atoms: _157  and  _159
REMARK   69  A    between atoms: _159  and  _160
REMARK   70  A    between atoms: _159  and  _162
REMARK   71  A    between atoms: _162  and  _163
REMARK   72  A    between atoms: _165  and  _167
REMARK   73  A    between atoms: _167  and  _168
REMARK   74  A    between atoms: _167  and  _170
REMARK   75  A    between atoms: _170  and  _171
REMARK   76  A    between atoms: _176  and  _177
REMARK   77  A    between atoms: _179  and  _181
REMARK   78  A    between atoms: _181  and  _182
REMARK   79  A    between atoms: _181  and  _184
REMARK   80  A    between atoms: _184  and  _185
REMARK   81  A    between atoms: _190  and  _191
REMARK   82  A    between atoms: _193  and  _195
REMARK   83  A    between atoms: _195  and  _196
REMARK   84  A    between atoms: _195  and  _198
REMARK   85  A    between atoms: _198  and  _199
REMARK   86  A    between atoms: _199  and  _239
REMARK   87  A    between atoms: _200  and  _202
REMARK   88  A    between atoms: _202  and  _203
REMARK   89  A    between atoms: _205  and  _207
REMARK   90  A    between atoms: _207  and  _208
REMARK   91  A    between atoms: _207  and  _210
REMARK   92  A    between atoms: _210  and  _211
REMARK   93  A    between atoms: _221  and  _223
REMARK   94  A    between atoms: _223  and  _224
REMARK   95  A    between atoms: _226  and  _228
REMARK   96  A    between atoms: _228  and  _229
REMARK   97  A    between atoms: _228  and  _231
REMARK   98  A    between atoms: _233  and  _235
REMARK   99  A    between atoms: _235  and  _236
REMARK  100  A    between atoms: _235  and  _238
REMARK  101  A    between atoms: _238  and  _239
REMARK  102  A    between atoms: _240  and  _242
REMARK  103  A    between atoms: _242  and  _243
REMARK  104  A    between atoms: _242  and  _245
REMARK  105  A    between atoms: _245  and  _246
REMARK  106  A    between atoms: _252  and  _254
REMARK  107  A    between atoms: _254  and  _255
REMARK  108  A    between atoms: _254  and  _257
REMARK  109  A    between atoms: _257  and  _258
REMARK  110  A    between atoms: _263  and  _265
REMARK  111  A    between atoms: _265  and  _266
REMARK  112  A    between atoms: _265  and  _268
REMARK  113  A    between atoms: _268  and  _269
REMARK  114  A    between atoms: _272  and  _274
REMARK  115  A    between atoms: _274  and  _275
REMARK  116  A    between atoms: _274  and  _277
REMARK  117  A    between atoms: _277  and  _278
REMARK  118  A    between atoms: _283  and  _284
REMARK  119  A    between atoms: _286  and  _288
REMARK  120  A    between atoms: _288  and  _289
REMARK  121  A    between atoms: _288  and  _291
REMARK  122  A    between atoms: _291  and  _292
REMARK  123  A    between atoms: _292  and  _293
REMARK  124  A    between atoms: _293  and  _294
REMARK  125  A    between atoms: _294  and  _295
REMARK  126  A    between atoms: _299  and  _301
REMARK  127  A    between atoms: _301  and  _302
REMARK  128  A    between atoms: _301  and  _304
REMARK  129  A    between atoms: _304  and  _305
REMARK  130  A    between atoms: _308  and  _310
REMARK  131  A    between atoms: _310  and  _311
REMARK  132  A    between atoms: _314  and  _316
REMARK  133  A    between atoms: _316  and  _317
REMARK  134  A    between atoms: _316  and  _319
REMARK  135  A    between atoms: _319  and  _320
REMARK                            x       y       z     vdW  Elec       q    Type
REMARK                         _______ _______ _______ _____ _____    ______ ____
ROOT
ATOM      1  O   HOH     1     -15.818  15.617   7.233  0.00  0.00    +0.000 OA
ENDROOT
TORSDOF 0
REMARK  Name = ../refined-set-2016/4qgd/4qgd_pocket.pdb
REMARK  135 active torsions:
REMARK  status: ('A' for Active; 'I' for Inactive)
REMARK    1  A    between atoms: _1  and  _5
REMARK    2  A    between atoms: _5  and  _6
REMARK    3  A    between atoms: _5  and  _8
REMARK    4  A    between atoms: _8  and  _9
REMARK    5  A    between atoms: _11  and  _13
REMARK    6  A    between atoms: _13  and  _14
REMARK    7  A    between atoms: _13  and  _16
REMARK    8  A    between atoms: _16  and  _17
REMARK    9  A    between atoms: _20  and  _22
REMARK   10  A    between atoms: _22  and  _23
REMARK   11  A    between atoms: _22  and  _25
REMARK   12  A    between atoms: _25  and  _26
REMARK   13  A    between atoms: _29  and  _31
REMARK   14  A    between atoms: _31  and  _32
REMARK   15  A    between atoms: _31  and  _34
REMARK   16  A    between atoms: _34  and  _35
REMARK   17  A    between atoms: _35  and  _36
REMARK   18  A    between atoms: _39  and  _41
REMARK   19  A    between atoms: _41  and  _42
REMARK   20  A    between atoms: _41  and  _44
REMARK   21  A    between atoms: _44  and  _45
REMARK   22  A    between atoms: _51  and  _53
REMARK   23  A    between atoms: _53  and  _54
REMARK   24  A    between atoms: _56  and  _58
REMARK   25  A    between atoms: _58  and  _59
REMARK   26  A    between atoms: _58  and  _61
REMARK   27  A    between atoms: _61  and  _62
REMARK   28  A    between atoms: _62  and  _63
REMARK   29  A    between atoms: _63  and  _64
REMARK   30  A    between atoms: _64  and  _65
REMARK   31  A    between atoms: _69  and  _71
REMARK   32  A    between atoms: _71  and  _72
REMARK   33  A    between atoms: _71  and  _74
REMARK   34  A    between atoms: _74  and  _75
REMARK   35  A    between atoms: _75  and  _76
REMARK   36  A    between atoms: _78  and  _80
REMARK   37  A    between atoms: _80  and  _81
REMARK   38  A    between atoms: _80  and  _83
REMARK   39  A    between atoms: _83  and  _84
REMARK   40  A    between atoms: _87  and  _89
REMARK   41  A    between atoms: _89  and  _90
REMARK   42  A    between atoms: _89  and  _92
REMARK   43  A    between atoms: _92  and  _93
REMARK   44  A    between atoms: _96  and  _98
REMARK   45  A    between atoms: _98  and  _99
REMARK   46  A    between atoms: _98  and  _101
REMARK   47  A    between atoms: _101  and  _102
REMARK   48  A    between atoms: _105  and  _107
REMARK   49  A    between atoms: _107  and  _108
REMARK   50  A    between atoms: _111  and  _113
REMARK   51  A    between atoms: _113  and  _114
REMARK   52  A    between atoms: _113  and  _116
REMARK   53  A    between atoms: _116  and  _117
REMARK   54  A    between atoms: _121  and  _122
REMARK   55  A    between atoms: _127  and  _129
REMARK   56  A    between atoms: _129  and  _130
REMARK   57  A    between atoms: _129  and  _132
REMARK   58  A    between atoms: _132  and  _133
REMARK   59  A    between atoms: _135  and  _137
REMARK   60  A    between atoms: _137  and  _138
REMARK   61  A    between atoms: _137  and  _140
REMARK   62  A    between atoms: _140  and  _141
REMARK   63  A    between atoms: _146  and  _147
REMARK   64  A    between atoms: _149  and  _151
REMARK   65  A    between atoms: _151  and  _152
REMARK   66  A    between atoms: _151  and  _154
REMARK   67  A    between atoms: _154  and  _155
REMARK   68  A    between atoms: _157  and  _159
REMARK   69  A    between atoms: _159  and  _160
REMARK   70  A    between atoms: _159  and  _162
REMARK   71  A    between atoms: _162  and  _163
REMARK   72  A    between atoms: _165  and  _167
REMARK   73  A    between atoms: _167  and  _168
REMARK   74  A    between atoms: _167  and  _170
REMARK   75  A    between atoms: _170  and  _171
REMARK   76  A    between atoms: _176  and  _177
REMARK   77  A    between atoms: _179  and  _181
REMARK   78  A    between atoms: _181  and  _182
REMARK   79  A    between atoms: _181  and  _184
REMARK   80  A    between atoms: _184  and  _185
REMARK   81  A    between atoms: _190  and  _191
REMARK   82  A    between atoms: _193  and  _195
REMARK   83  A    between atoms: _195  and  _196
REMARK   84  A    between atoms: _195  and  _198
REMARK   85  A    between atoms: _198  and  _199
REMARK   86  A    between atoms: _199  and  _239
REMARK   87  A    between atoms: _200  and  _202
REMARK   88  A    between atoms: _202  and  _203
REMARK   89  A    between atoms: _205  and  _207
REMARK   90  A    between atoms: _207  and  _208
REMARK   91  A    between atoms: _207  and  _210
REMARK   92  A    between atoms: _210  and  _211
REMARK   93  A    between atoms: _221  and  _223
REMARK   94  A    between atoms: _223  and  _224
REMARK   95  A    between atoms: _226  and  _228
REMARK   96  A    between atoms: _228  and  _229
REMARK   97  A    between atoms: _228  and  _231
REMARK   98  A    between atoms: _233  and  _235
REMARK   99  A    between atoms: _235  and  _236
REMARK  100  A    between atoms: _235  and  _238
REMARK  101  A    between atoms: _238  and  _239
REMARK  102  A    between atoms: _240  and  _242
REMARK  103  A    between atoms: _242  and  _243
REMARK  104  A    between atoms: _242  and  _245
REMARK  105  A    between atoms: _245  and  _246
REMARK  106  A    between atoms: _252  and  _254
REMARK  107  A    between atoms: _254  and  _255
REMARK  108  A    between atoms: _254  and  _257
REMARK  109  A    between atoms: _257  and  _258
REMARK  110  A    between atoms: _263  and  _265
REMARK  111  A    between atoms: _265  and  _266
REMARK  112  A    between atoms: _265  and  _268
REMARK  113  A    between atoms: _268  and  _269
REMARK  114  A    between atoms: _272  and  _274
REMARK  115  A    between atoms: _274  and  _275
REMARK  116  A    between atoms: _274  and  _277
REMARK  117  A    between atoms: _277  and  _278
REMARK  118  A    between atoms: _283  and  _284
REMARK  119  A    between atoms: _286  and  _288
REMARK  120  A    between atoms: _288  and  _289
REMARK  121  A    between atoms: _288  and  _291
REMARK  122  A    between atoms: _291  and  _292
REMARK  123  A    between atoms: _292  and  _293
REMARK  124  A    between atoms: _293  and  _294
REMARK  125  A    between atoms: _294  and  _295
REMARK  126  A    between atoms: _299  and  _301
REMARK  127  A    between atoms: _301  and  _302
REMARK  128  A    between atoms: _301  and  _304
REMARK  129  A    between atoms: _304  and  _305
REMARK  130  A    between atoms: _308  and  _310
REMARK  131  A    between atoms: _310  and  _311
REMARK  132  A    between atoms: _314  and  _316
REMARK  133  A    between atoms: _316  and  _317
REMARK  134  A    between atoms: _316  and  _319
REMARK  135  A    between atoms: _319  and  _320
REMARK                            x       y       z     vdW  Elec       q    Type
REMARK                         _______ _______ _______ _____ _____    ______ ____
ROOT
ATOM      1  O   HOH     1     -16.500   2.581   5.034  0.00  0.00    +0.000 OA
ENDROOT
TORSDOF 0
