REMARK  Name = ../refined-set-2016/3hu3/3hu3_pocket.pdb
REMARK  238 active torsions:
REMARK  status: ('A' for Active; 'I' for Inactive)
REMARK    1  A    between atoms: _1  and  _3
REMARK    2  A    between atoms: _3  and  _4
REMARK    3  A    between atoms: _3  and  _6
REMARK    4  A    between atoms: _9  and  _11
REMARK    5  A    between atoms: _11  and  _12
REMARK    6  A    between atoms: _11  and  _14
REMARK    7  A    between atoms: _14  and  _15
REMARK    8  A    between atoms: _20  and  _21
REMARK    9  A    between atoms: _23  and  _25
REMARK   10  A    between atoms: _25  and  _26
REMARK   11  A    between atoms: _25  and  _28
REMARK   12  A    between atoms: _28  and  _29
REMARK   13  A    between atoms: _32  and  _34
REMARK   14  A    between atoms: _34  and  _35
REMARK   15  A    between atoms: _34  and  _37
REMARK   16  A    between atoms: _37  and  _38
REMARK   17  A    between atoms: _41  and  _43
REMARK   18  A    between atoms: _43  and  _44
REMARK   19  A    between atoms: _43  and  _46
REMARK   20  A    between atoms: _46  and  _47
REMARK   21  A    between atoms: _50  and  _52
REMARK   22  A    between atoms: _52  and  _53
REMARK   23  A    between atoms: _55  and  _57
REMARK   24  A    between atoms: _57  and  _58
REMARK   25  A    between atoms: _60  and  _62
REMARK   26  A    between atoms: _62  and  _63
REMARK   27  A    between atoms: _62  and  _65
REMARK   28  A    between atoms: _67  and  _69
REMARK   29  A    between atoms: _69  and  _70
REMARK   30  A    between atoms: _69  and  _72
REMARK   31  A    between atoms: _72  and  _73
REMARK   32  A    between atoms: _73  and  _74
REMARK   33  A    between atoms: _74  and  _75
REMARK   34  A    between atoms: _84  and  _86
REMARK   35  A    between atoms: _86  and  _87
REMARK   36  A    between atoms: _86  and  _89
REMARK   37  A    between atoms: _89  and  _90
REMARK   38  A    between atoms: _90  and  _91
REMARK   39  A    between atoms: _96  and  _98
REMARK   40  A    between atoms: _98  and  _99
REMARK   41  A    between atoms: _98  and  _101
REMARK   42  A    between atoms: _101  and  _102
REMARK   43  A    between atoms: _105  and  _107
REMARK   44  A    between atoms: _107  and  _108
REMARK   45  A    between atoms: _107  and  _110
REMARK   46  A    between atoms: _110  and  _111
REMARK   47  A    between atoms: _114  and  _116
REMARK   48  A    between atoms: _116  and  _117
REMARK   49  A    between atoms: _116  and  _119
REMARK   50  A    between atoms: _119  and  _120
REMARK   51  A    between atoms: _125  and  _126
REMARK   52  A    between atoms: _128  and  _130
REMARK   53  A    between atoms: _130  and  _131
REMARK   54  A    between atoms: _134  and  _135
REMARK   55  A    between atoms: _141  and  _142
REMARK   56  A    between atoms: _147  and  _149
REMARK   57  A    between atoms: _149  and  _150
REMARK   58  A    between atoms: _152  and  _154
REMARK   59  A    between atoms: _154  and  _155
REMARK   60  A    between atoms: _154  and  _157
REMARK   61  A    between atoms: _157  and  _158
REMARK   62  A    between atoms: _161  and  _163
REMARK   63  A    between atoms: _163  and  _164
REMARK   64  A    between atoms: _166  and  _168
REMARK   65  A    between atoms: _168  and  _169
REMARK   66  A    between atoms: _168  and  _171
REMARK   67  A    between atoms: _171  and  _172
REMARK   68  A    between atoms: _172  and  _173
REMARK   69  A    between atoms: _173  and  _174
REMARK   70  A    between atoms: _174  and  _175
REMARK   71  A    between atoms: _179  and  _181
REMARK   72  A    between atoms: _181  and  _182
REMARK   73  A    between atoms: _181  and  _184
REMARK   74  A    between atoms: _184  and  _185
REMARK   75  A    between atoms: _188  and  _190
REMARK   76  A    between atoms: _190  and  _191
REMARK   77  A    between atoms: _190  and  _193
REMARK   78  A    between atoms: _193  and  _194
REMARK   79  A    between atoms: _197  and  _199
REMARK   80  A    between atoms: _199  and  _200
REMARK   81  A    between atoms: _199  and  _202
REMARK   82  A    between atoms: _202  and  _203
REMARK   83  A    between atoms: _206  and  _208
REMARK   84  A    between atoms: _208  and  _209
REMARK   85  A    between atoms: _212  and  _214
REMARK   86  A    between atoms: _214  and  _215
REMARK   87  A    between atoms: _214  and  _217
REMARK   88  A    between atoms: _217  and  _218
REMARK   89  A    between atoms: _218  and  _219
REMARK   90  A    between atoms: _219  and  _220
REMARK   91  A    between atoms: _229  and  _231
REMARK   92  A    between atoms: _231  and  _232
REMARK   93  A    between atoms: _235  and  _237
REMARK   94  A    between atoms: _237  and  _238
REMARK   95  A    between atoms: _237  and  _240
REMARK   96  A    between atoms: _240  and  _241
REMARK   97  A    between atoms: _247  and  _249
REMARK   98  A    between atoms: _249  and  _250
REMARK   99  A    between atoms: _249  and  _252
REMARK  100  A    between atoms: _252  and  _253
REMARK  101  A    between atoms: _256  and  _258
REMARK  102  A    between atoms: _258  and  _259
REMARK  103  A    between atoms: _258  and  _261
REMARK  104  A    between atoms: _261  and  _262
REMARK  105  A    between atoms: _262  and  _263
REMARK  106  A    between atoms: _266  and  _268
REMARK  107  A    between atoms: _268  and  _269
REMARK  108  A    between atoms: _268  and  _271
REMARK  109  A    between atoms: _271  and  _272
REMARK  110  A    between atoms: _275  and  _277
REMARK  111  A    between atoms: _277  and  _278
REMARK  112  A    between atoms: _281  and  _283
REMARK  113  A    between atoms: _283  and  _284
REMARK  114  A    between atoms: _283  and  _286
REMARK  115  A    between atoms: _286  and  _287
REMARK  116  A    between atoms: _290  and  _292
REMARK  117  A    between atoms: _292  and  _293
REMARK  118  A    between atoms: _292  and  _295
REMARK  119  A    between atoms: _295  and  _296
REMARK  120  A    between atoms: _301  and  _303
REMARK  121  A    between atoms: _303  and  _304
REMARK  122  A    between atoms: _303  and  _306
REMARK  123  A    between atoms: _306  and  _307
REMARK  124  A    between atoms: _307  and  _308
REMARK  125  A    between atoms: _308  and  _309
REMARK  126  A    between atoms: _318  and  _320
REMARK  127  A    between atoms: _320  and  _321
REMARK  128  A    between atoms: _320  and  _323
REMARK  129  A    between atoms: _323  and  _324
REMARK  130  A    between atoms: _327  and  _329
REMARK  131  A    between atoms: _329  and  _330
REMARK  132  A    between atoms: _333  and  _334
REMARK  133  A    between atoms: _339  and  _341
REMARK  134  A    between atoms: _341  and  _342
REMARK  135  A    between atoms: _344  and  _346
REMARK  136  A    between atoms: _346  and  _347
REMARK  137  A    between atoms: _346  and  _349
REMARK  138  A    between atoms: _349  and  _350
REMARK  139  A    between atoms: _350  and  _351
REMARK  140  A    between atoms: _351  and  _352
REMARK  141  A    between atoms: _361  and  _363
REMARK  142  A    between atoms: _363  and  _364
REMARK  143  A    between atoms: _363  and  _366
REMARK  144  A    between atoms: _366  and  _367
REMARK  145  A    between atoms: _367  and  _368
REMARK  146  A    between atoms: _371  and  _373
REMARK  147  A    between atoms: _373  and  _374
REMARK  148  A    between atoms: _373  and  _376
REMARK  149  A    between atoms: _376  and  _377
REMARK  150  A    between atoms: _380  and  _382
REMARK  151  A    between atoms: _382  and  _383
REMARK  152  A    between atoms: _382  and  _385
REMARK  153  A    between atoms: _385  and  _386
REMARK  154  A    between atoms: _389  and  _391
REMARK  155  A    between atoms: _391  and  _392
REMARK  156  A    between atoms: _391  and  _394
REMARK  157  A    between atoms: _394  and  _395
REMARK  158  A    between atoms: _395  and  _396
REMARK  159  A    between atoms: _401  and  _403
REMARK  160  A    between atoms: _403  and  _404
REMARK  161  A    between atoms: _403  and  _406
REMARK  162  A    between atoms: _406  and  _407
REMARK  163  A    between atoms: _410  and  _412
REMARK  164  A    between atoms: _412  and  _413
REMARK  165  A    between atoms: _412  and  _415
REMARK  166  A    between atoms: _415  and  _416
REMARK  167  A    between atoms: _421  and  _423
REMARK  168  A    between atoms: _423  and  _424
REMARK  169  A    between atoms: _423  and  _426
REMARK  170  A    between atoms: _429  and  _431
REMARK  171  A    between atoms: _431  and  _432
REMARK  172  A    between atoms: _434  and  _436
REMARK  173  A    between atoms: _436  and  _437
REMARK  174  A    between atoms: _440  and  _442
REMARK  175  A    between atoms: _442  and  _443
REMARK  176  A    between atoms: _442  and  _445
REMARK  177  A    between atoms: _445  and  _446
REMARK  178  A    between atoms: _449  and  _451
REMARK  179  A    between atoms: _451  and  _452
REMARK  180  A    between atoms: _451  and  _454
REMARK  181  A    between atoms: _454  and  _455
REMARK  182  A    between atoms: _458  and  _460
REMARK  183  A    between atoms: _460  and  _461
REMARK  184  A    between atoms: _464  and  _466
REMARK  185  A    between atoms: _466  and  _467
REMARK  186  A    between atoms: _470  and  _472
REMARK  187  A    between atoms: _472  and  _473
REMARK  188  A    between atoms: _472  and  _475
REMARK  189  A    between atoms: _475  and  _476
REMARK  190  A    between atoms: _478  and  _480
REMARK  191  A    between atoms: _480  and  _481
REMARK  192  A    between atoms: _480  and  _483
REMARK  193  A    between atoms: _483  and  _484
REMARK  194  A    between atoms: _484  and  _485
REMARK  195  A    between atoms: _485  and  _486
REMARK  196  A    between atoms: _486  and  _487
REMARK  197  A    between atoms: _491  and  _493
REMARK  198  A    between atoms: _493  and  _494
REMARK  199  A    between atoms: _493  and  _496
REMARK  200  A    between atoms: _496  and  _497
REMARK  201  A    between atoms: _497  and  _498
REMARK  202  A    between atoms: _498  and  _499
REMARK  203  A    between atoms: _508  and  _510
REMARK  204  A    between atoms: _510  and  _511
REMARK  205  A    between atoms: _510  and  _513
REMARK  206  A    between atoms: _513  and  _514
REMARK  207  A    between atoms: _517  and  _519
REMARK  208  A    between atoms: _519  and  _520
REMARK  209  A    between atoms: _519  and  _522
REMARK  210  A    between atoms: _522  and  _523
REMARK  211  A    between atoms: _523  and  _524
REMARK  212  A    between atoms: _530  and  _531
REMARK  213  A    between atoms: _536  and  _538
REMARK  214  A    between atoms: _538  and  _539
REMARK  215  A    between atoms: _542  and  _544
REMARK  216  A    between atoms: _544  and  _545
REMARK  217  A    between atoms: _544  and  _547
REMARK  218  A    between atoms: _547  and  _548
REMARK  219  A    between atoms: _548  and  _549
REMARK  220  A    between atoms: _549  and  _550
REMARK  221  A    between atoms: _559  and  _561
REMARK  222  A    between atoms: _561  and  _562
REMARK  223  A    between atoms: _561  and  _564
REMARK  224  A    between atoms: _564  and  _565
REMARK  225  A    between atoms: _565  and  _566
REMARK  226  A    between atoms: _566  and  _567
REMARK  227  A    between atoms: _576  and  _578
REMARK  228  A    between atoms: _578  and  _579
REMARK  229  A    between atoms: _578  and  _581
REMARK  230  A    between atoms: _581  and  _582
REMARK  231  A    between atoms: _588  and  _590
REMARK  232  A    between atoms: _590  and  _591
REMARK  233  A    between atoms: _593  and  _595
REMARK  234  A    between atoms: _595  and  _596
REMARK  235  A    between atoms: _595  and  _598
REMARK  236  A    between atoms: _598  and  _599
REMARK  237  A    between atoms: _599  and  _600
REMARK  238  A    between atoms: _600  and  _601
REMARK                            x       y       z     vdW  Elec       q    Type
REMARK                         _______ _______ _______ _____ _____    ______ ____
ROOT
ATOM      1  CA  VAL A   1      26.915  43.430  -2.157  0.00  0.00    +0.133 C 
ENDROOT
BRANCH   1   2
ATOM      2  CB  VAL A   1      26.092  44.458  -2.995  0.00  0.00    +0.023 C 
ATOM      3  CG2 VAL A   1      24.647  43.923  -3.264  0.00  0.00    +0.002 C 
ATOM      4  CG1 VAL A   1      26.786  44.786  -4.286  0.00  0.00    +0.002 C 
ENDBRANCH   1   2
BRANCH   1   5
ATOM      5  N   VAL A   1      26.257  43.186  -0.878  0.00  0.00    -0.239 NA
ATOM      6  H   VAL A   1      25.539  43.863  -0.550  0.00  0.00    +0.142 HD
ENDBRANCH   1   5
BRANCH   1   7
ATOM      7  C   VAL A   1      28.362  43.932  -1.941  0.00  0.00    +0.224 C 
ATOM      8  O   VAL A   1      28.614  44.768  -1.063  0.00  0.00    -0.287 OA
ENDBRANCH   1   7
TORSDOF 3
REMARK  Name = ../refined-set-2016/3hu3/3hu3_pocket.pdb
REMARK  238 active torsions:
REMARK  status: ('A' for Active; 'I' for Inactive)
REMARK    1  A    between atoms: _1  and  _3
REMARK    2  A    between atoms: _3  and  _4
REMARK    3  A    between atoms: _3  and  _6
REMARK    4  A    between atoms: _9  and  _11
REMARK    5  A    between atoms: _11  and  _12
REMARK    6  A    between atoms: _11  and  _14
REMARK    7  A    between atoms: _14  and  _15
REMARK    8  A    between atoms: _20  and  _21
REMARK    9  A    between atoms: _23  and  _25
REMARK   10  A    between atoms: _25  and  _26
REMARK   11  A    between atoms: _25  and  _28
REMARK   12  A    between atoms: _28  and  _29
REMARK   13  A    between atoms: _32  and  _34
REMARK   14  A    between atoms: _34  and  _35
REMARK   15  A    between atoms: _34  and  _37
REMARK   16  A    between atoms: _37  and  _38
REMARK   17  A    between atoms: _41  and  _43
REMARK   18  A    between atoms: _43  and  _44
REMARK   19  A    between atoms: _43  and  _46
REMARK   20  A    between atoms: _46  and  _47
REMARK   21  A    between atoms: _50  and  _52
REMARK   22  A    between atoms: _52  and  _53
REMARK   23  A    between atoms: _55  and  _57
REMARK   24  A    between atoms: _57  and  _58
REMARK   25  A    between atoms: _60  and  _62
REMARK   26  A    between atoms: _62  and  _63
REMARK   27  A    between atoms: _62  and  _65
REMARK   28  A    between atoms: _67  and  _69
REMARK   29  A    between atoms: _69  and  _70
REMARK   30  A    between atoms: _69  and  _72
REMARK   31  A    between atoms: _72  and  _73
REMARK   32  A    between atoms: _73  and  _74
REMARK   33  A    between atoms: _74  and  _75
REMARK   34  A    between atoms: _84  and  _86
REMARK   35  A    between atoms: _86  and  _87
REMARK   36  A    between atoms: _86  and  _89
REMARK   37  A    between atoms: _89  and  _90
REMARK   38  A    between atoms: _90  and  _91
REMARK   39  A    between atoms: _96  and  _98
REMARK   40  A    between atoms: _98  and  _99
REMARK   41  A    between atoms: _98  and  _101
REMARK   42  A    between atoms: _101  and  _102
REMARK   43  A    between atoms: _105  and  _107
REMARK   44  A    between atoms: _107  and  _108
REMARK   45  A    between atoms: _107  and  _110
REMARK   46  A    between atoms: _110  and  _111
REMARK   47  A    between atoms: _114  and  _116
REMARK   48  A    between atoms: _116  and  _117
REMARK   49  A    between atoms: _116  and  _119
REMARK   50  A    between atoms: _119  and  _120
REMARK   51  A    between atoms: _125  and  _126
REMARK   52  A    between atoms: _128  and  _130
REMARK   53  A    between atoms: _130  and  _131
REMARK   54  A    between atoms: _134  and  _135
REMARK   55  A    between atoms: _141  and  _142
REMARK   56  A    between atoms: _147  and  _149
REMARK   57  A    between atoms: _149  and  _150
REMARK   58  A    between atoms: _152  and  _154
REMARK   59  A    between atoms: _154  and  _155
REMARK   60  A    between atoms: _154  and  _157
REMARK   61  A    between atoms: _157  and  _158
REMARK   62  A    between atoms: _161  and  _163
REMARK   63  A    between atoms: _163  and  _164
REMARK   64  A    between atoms: _166  and  _168
REMARK   65  A    between atoms: _168  and  _169
REMARK   66  A    between atoms: _168  and  _171
REMARK   67  A    between atoms: _171  and  _172
REMARK   68  A    between atoms: _172  and  _173
REMARK   69  A    between atoms: _173  and  _174
REMARK   70  A    between atoms: _174  and  _175
REMARK   71  A    between atoms: _179  and  _181
REMARK   72  A    between atoms: _181  and  _182
REMARK   73  A    between atoms: _181  and  _184
REMARK   74  A    between atoms: _184  and  _185
REMARK   75  A    between atoms: _188  and  _190
REMARK   76  A    between atoms: _190  and  _191
REMARK   77  A    between atoms: _190  and  _193
REMARK   78  A    between atoms: _193  and  _194
REMARK   79  A    between atoms: _197  and  _199
REMARK   80  A    between atoms: _199  and  _200
REMARK   81  A    between atoms: _199  and  _202
REMARK   82  A    between atoms: _202  and  _203
REMARK   83  A    between atoms: _206  and  _208
REMARK   84  A    between atoms: _208  and  _209
REMARK   85  A    between atoms: _212  and  _214
REMARK   86  A    between atoms: _214  and  _215
REMARK   87  A    between atoms: _214  and  _217
REMARK   88  A    between atoms: _217  and  _218
REMARK   89  A    between atoms: _218  and  _219
REMARK   90  A    between atoms: _219  and  _220
REMARK   91  A    between atoms: _229  and  _231
REMARK   92  A    between atoms: _231  and  _232
REMARK   93  A    between atoms: _235  and  _237
REMARK   94  A    between atoms: _237  and  _238
REMARK   95  A    between atoms: _237  and  _240
REMARK   96  A    between atoms: _240  and  _241
REMARK   97  A    between atoms: _247  and  _249
REMARK   98  A    between atoms: _249  and  _250
REMARK   99  A    between atoms: _249  and  _252
REMARK  100  A    between atoms: _252  and  _253
REMARK  101  A    between atoms: _256  and  _258
REMARK  102  A    between atoms: _258  and  _259
REMARK  103  A    between atoms: _258  and  _261
REMARK  104  A    between atoms: _261  and  _262
REMARK  105  A    between atoms: _262  and  _263
REMARK  106  A    between atoms: _266  and  _268
REMARK  107  A    between atoms: _268  and  _269
REMARK  108  A    between atoms: _268  and  _271
REMARK  109  A    between atoms: _271  and  _272
REMARK  110  A    between atoms: _275  and  _277
REMARK  111  A    between atoms: _277  and  _278
REMARK  112  A    between atoms: _281  and  _283
REMARK  113  A    between atoms: _283  and  _284
REMARK  114  A    between atoms: _283  and  _286
REMARK  115  A    between atoms: _286  and  _287
REMARK  116  A    between atoms: _290  and  _292
REMARK  117  A    between atoms: _292  and  _293
REMARK  118  A    between atoms: _292  and  _295
REMARK  119  A    between atoms: _295  and  _296
REMARK  120  A    between atoms: _301  and  _303
REMARK  121  A    between atoms: _303  and  _304
REMARK  122  A    between atoms: _303  and  _306
REMARK  123  A    between atoms: _306  and  _307
REMARK  124  A    between atoms: _307  and  _308
REMARK  125  A    between atoms: _308  and  _309
REMARK  126  A    between atoms: _318  and  _320
REMARK  127  A    between atoms: _320  and  _321
REMARK  128  A    between atoms: _320  and  _323
REMARK  129  A    between atoms: _323  and  _324
REMARK  130  A    between atoms: _327  and  _329
REMARK  131  A    between atoms: _329  and  _330
REMARK  132  A    between atoms: _333  and  _334
REMARK  133  A    between atoms: _339  and  _341
REMARK  134  A    between atoms: _341  and  _342
REMARK  135  A    between atoms: _344  and  _346
REMARK  136  A    between atoms: _346  and  _347
REMARK  137  A    between atoms: _346  and  _349
REMARK  138  A    between atoms: _349  and  _350
REMARK  139  A    between atoms: _350  and  _351
REMARK  140  A    between atoms: _351  and  _352
REMARK  141  A    between atoms: _361  and  _363
REMARK  142  A    between atoms: _363  and  _364
REMARK  143  A    between atoms: _363  and  _366
REMARK  144  A    between atoms: _366  and  _367
REMARK  145  A    between atoms: _367  and  _368
REMARK  146  A    between atoms: _371  and  _373
REMARK  147  A    between atoms: _373  and  _374
REMARK  148  A    between atoms: _373  and  _376
REMARK  149  A    between atoms: _376  and  _377
REMARK  150  A    between atoms: _380  and  _382
REMARK  151  A    between atoms: _382  and  _383
REMARK  152  A    between atoms: _382  and  _385
REMARK  153  A    between atoms: _385  and  _386
REMARK  154  A    between atoms: _389  and  _391
REMARK  155  A    between atoms: _391  and  _392
REMARK  156  A    between atoms: _391  and  _394
REMARK  157  A    between atoms: _394  and  _395
REMARK  158  A    between atoms: _395  and  _396
REMARK  159  A    between atoms: _401  and  _403
REMARK  160  A    between atoms: _403  and  _404
REMARK  161  A    between atoms: _403  and  _406
REMARK  162  A    between atoms: _406  and  _407
REMARK  163  A    between atoms: _410  and  _412
REMARK  164  A    between atoms: _412  and  _413
REMARK  165  A    between atoms: _412  and  _415
REMARK  166  A    between atoms: _415  and  _416
REMARK  167  A    between atoms: _421  and  _423
REMARK  168  A    between atoms: _423  and  _424
REMARK  169  A    between atoms: _423  and  _426
REMARK  170  A    between atoms: _429  and  _431
REMARK  171  A    between atoms: _431  and  _432
REMARK  172  A    between atoms: _434  and  _436
REMARK  173  A    between atoms: _436  and  _437
REMARK  174  A    between atoms: _440  and  _442
REMARK  175  A    between atoms: _442  and  _443
REMARK  176  A    between atoms: _442  and  _445
REMARK  177  A    between atoms: _445  and  _446
REMARK  178  A    between atoms: _449  and  _451
REMARK  179  A    between atoms: _451  and  _452
REMARK  180  A    between atoms: _451  and  _454
REMARK  181  A    between atoms: _454  and  _455
REMARK  182  A    between atoms: _458  and  _460
REMARK  183  A    between atoms: _460  and  _461
REMARK  184  A    between atoms: _464  and  _466
REMARK  185  A    between atoms: _466  and  _467
REMARK  186  A    between atoms: _470  and  _472
REMARK  187  A    between atoms: _472  and  _473
REMARK  188  A    between atoms: _472  and  _475
REMARK  189  A    between atoms: _475  and  _476
REMARK  190  A    between atoms: _478  and  _480
REMARK  191  A    between atoms: _480  and  _481
REMARK  192  A    between atoms: _480  and  _483
REMARK  193  A    between atoms: _483  and  _484
REMARK  194  A    between atoms: _484  and  _485
REMARK  195  A    between atoms: _485  and  _486
REMARK  196  A    between atoms: _486  and  _487
REMARK  197  A    between atoms: _491  and  _493
REMARK  198  A    between atoms: _493  and  _494
REMARK  199  A    between atoms: _493  and  _496
REMARK  200  A    between atoms: _496  and  _497
REMARK  201  A    between atoms: _497  and  _498
REMARK  202  A    between atoms: _498  and  _499
REMARK  203  A    between atoms: _508  and  _510
REMARK  204  A    between atoms: _510  and  _511
REMARK  205  A    between atoms: _510  and  _513
REMARK  206  A    between atoms: _513  and  _514
REMARK  207  A    between atoms: _517  and  _519
REMARK  208  A    between atoms: _519  and  _520
REMARK  209  A    between atoms: _519  and  _522
REMARK  210  A    between atoms: _522  and  _523
REMARK  211  A    between atoms: _523  and  _524
REMARK  212  A    between atoms: _530  and  _531
REMARK  213  A    between atoms: _536  and  _538
REMARK  214  A    between atoms: _538  and  _539
REMARK  215  A    between atoms: _542  and  _544
REMARK  216  A    between atoms: _544  and  _545
REMARK  217  A    between atoms: _544  and  _547
REMARK  218  A    between atoms: _547  and  _548
REMARK  219  A    between atoms: _548  and  _549
REMARK  220  A    between atoms: _549  and  _550
REMARK  221  A    between atoms: _559  and  _561
REMARK  222  A    between atoms: _561  and  _562
REMARK  223  A    between atoms: _561  and  _564
REMARK  224  A    between atoms: _564  and  _565
REMARK  225  A    between atoms: _565  and  _566
REMARK  226  A    between atoms: _566  and  _567
REMARK  227  A    between atoms: _576  and  _578
REMARK  228  A    between atoms: _578  and  _579
REMARK  229  A    between atoms: _578  and  _581
REMARK  230  A    between atoms: _581  and  _582
REMARK  231  A    between atoms: _588  and  _590
REMARK  232  A    between atoms: _590  and  _591
REMARK  233  A    between atoms: _593  and  _595
REMARK  234  A    between atoms: _595  and  _596
REMARK  235  A    between atoms: _595  and  _598
REMARK  236  A    between atoms: _598  and  _599
REMARK  237  A    between atoms: _599  and  _600
REMARK  238  A    between atoms: _600  and  _601
REMARK                            x       y       z     vdW  Elec       q    Type
REMARK                         _______ _______ _______ _____ _____    ______ ____
ROOT
ATOM      1  CA  ILE A   4      29.390  44.006 -10.002  0.00  0.00    +0.149 C 
ENDROOT
BRANCH   1   2
ATOM      2  C   ILE A   4      30.124  43.496 -11.227  0.00  0.00    +0.241 C 
ATOM      3  O   ILE A   4      31.340  43.360 -11.215  0.00  0.00    -0.273 OA
ATOM      4  N   GLY A   5      29.366  43.201 -12.274  0.00  0.00    -0.295 N 
ATOM      5  H   GLY A   5      28.342  43.374 -12.219  0.00  0.00    +0.150 HD
BRANCH   4   6
ATOM      6  CA  GLY A   5      29.926  42.638 -13.506  0.00  0.00    +0.176 C 
BRANCH   6   7
ATOM      7  C   GLY A   5      29.969  43.678 -14.592  0.00  0.00    +0.243 C 
ATOM      8  O   GLY A   5      29.137  44.597 -14.609  0.00  0.00    -0.273 OA
ATOM      9  N   GLY A   6      30.958  43.554 -15.475  0.00  0.00    -0.295 N 
ATOM     10  H   GLY A   6      31.713  42.865 -15.282  0.00  0.00    +0.150 HD
BRANCH   9  11
ATOM     11  CA  GLY A   6      31.030  44.346 -16.708  0.00  0.00    +0.176 C 
BRANCH  11  12
ATOM     12  C   GLY A   6      31.407  45.803 -16.506  0.00  0.00    +0.243 C 
ATOM     13  N   CYS A   7      31.963  46.137 -15.342  0.00  0.00    -0.296 N 
ATOM     14  H   CYS A   7      32.226  45.395 -14.663  0.00  0.00    +0.150 HD
ATOM     15  O   GLY A   6      31.209  46.620 -17.398  0.00  0.00    -0.273 OA
BRANCH  13  16
ATOM     16  CA  CYS A   7      32.205  47.539 -15.015  0.00  0.00    +0.160 C 
BRANCH  16  17
ATOM     17  C   CYS A   7      33.635  47.787 -14.557  0.00  0.00    +0.242 C 
ATOM     18  O   CYS A   7      33.896  48.741 -13.838  0.00  0.00    -0.273 OA
ATOM     19  N   ARG A   8      34.548  46.924 -14.986  0.00  0.00    -0.298 N 
ATOM     20  H   ARG A   8      34.279  46.213 -15.696  0.00  0.00    +0.150 HD
BRANCH  19  21
ATOM     21  CA  ARG A   8      35.912  46.947 -14.489  0.00  0.00    +0.137 C 
BRANCH  21  22
ATOM     22  C   ARG A   8      36.512  48.345 -14.603  0.00  0.00    +0.227 C 
ATOM     23  O   ARG A   8      37.007  48.887 -13.621  0.00  0.00    -0.286 OA
ENDBRANCH  21  22
BRANCH  21  24
ATOM     24  CB  ARG A   8      36.775  45.901 -15.203  0.00  0.00    +0.031 C 
BRANCH  24  25
ATOM     25  CG  ARG A   8      38.154  45.781 -14.587  0.00  0.00    +0.045 C 
BRANCH  25  26
ATOM     26  CD  ARG A   8      38.966  44.612 -15.124  0.00  0.00    +0.174 C 
BRANCH  26  27
ATOM     27  NE  ARG A   8      40.345  44.609 -14.611  0.00  0.00    -0.265 N 
ATOM     28  CZ  ARG A   8      40.719  44.181 -13.400  0.00  0.00    +0.342 C 
ATOM     29  NH2 ARG A   8      39.825  43.729 -12.523  0.00  0.00    -0.292 N 
ATOM     30 HH21 ARG A   8      40.135  43.401 -11.586  0.00  0.00    +0.255 HD
ATOM     31 HH22 ARG A   8      38.816  43.704 -12.775  0.00  0.00    +0.255 HD
ATOM     32  NH1 ARG A   8      42.002  44.213 -13.046  0.00  0.00    -0.292 N 
ATOM     33 HH11 ARG A   8      42.290  43.880 -12.104  0.00  0.00    +0.255 HD
ATOM     34 HH12 ARG A   8      42.716  44.571 -13.712  0.00  0.00    +0.255 HD
ATOM     35  HE  ARG A   8      41.090  44.969 -15.241  0.00  0.00    +0.259 HD
ENDBRANCH  26  27
ENDBRANCH  25  26
ENDBRANCH  24  25
ENDBRANCH  21  24
ENDBRANCH  19  21
ENDBRANCH  16  17
BRANCH  16  36
ATOM     36  CB  CYS A   7      31.250  48.010 -13.918  0.00  0.00    +0.098 C 
ATOM     37  SG  CYS A   7      29.582  48.192 -14.452  0.00  0.00    -0.080 S 
ENDBRANCH  16  36
ENDBRANCH  13  16
ENDBRANCH  11  12
ENDBRANCH   9  11
ENDBRANCH   6   7
ENDBRANCH   4   6
ENDBRANCH   1   2
BRANCH   1  40
ATOM     38  C   ASP A   3      28.542  42.380  -8.413  0.00  0.00    +0.241 C 
ATOM     39  O   ASP A   3      27.417  42.494  -8.847  0.00  0.00    -0.273 OA
ATOM     40  N   ILE A   4      29.560  43.088  -8.882  0.00  0.00    -0.297 N 
ATOM     41  H   ILE A   4      30.497  42.987  -8.443  0.00  0.00    +0.150 HD
BRANCH  38  42
ATOM     42  CA  ASP A   3      28.819  41.405  -7.290  0.00  0.00    +0.160 C 
BRANCH  42  44
ATOM     43  C   ASP A   2      31.157  40.851  -7.356  0.00  0.00    +0.241 C 
ATOM     44  N   ASP A   3      30.176  41.520  -6.773  0.00  0.00    -0.297 N 
ATOM     45  H   ASP A   3      30.372  42.125  -5.950  0.00  0.00    +0.150 HD
ATOM     46  O   ASP A   2      30.939  40.036  -8.240  0.00  0.00    -0.273 OA
BRANCH  43  47
ATOM     47  CA  ASP A   2      32.584  41.083  -6.861  0.00  0.00    +0.160 C 
BRANCH  47  49
ATOM     48  C   TYR A   1      32.680  43.536  -6.753  0.00  0.00    +0.239 C 
ATOM     49  N   ASP A   2      32.773  42.353  -6.143  0.00  0.00    -0.297 N 
ATOM     50  H   ASP A   2      32.986  42.328  -5.125  0.00  0.00    +0.150 HD
ATOM     51  O   TYR A   1      32.499  43.658  -7.970  0.00  0.00    -0.274 OA
BRANCH  48  52
ATOM     52  CA  TYR A   1      32.747  44.782  -5.861  0.00  0.00    +0.149 C 
BRANCH  52  53
ATOM     53  N   TYR A   1      32.282  44.478  -4.512  0.00  0.00    -0.238 NA
ATOM     54  H   TYR A   1      32.956  44.514  -3.721  0.00  0.00    +0.142 HD
ENDBRANCH  52  53
BRANCH  52  55
ATOM     55  CB  TYR A   1      34.137  45.429  -5.882  0.00  0.00    +0.053 C 
BRANCH  55  56
ATOM     56  CG  TYR A   1      34.196  46.855  -5.325  0.00  0.00    -0.020 A 
ATOM     57  CD2 TYR A   1      35.228  47.248  -4.448  0.00  0.00    -0.001 A 
ATOM     58  CE2 TYR A   1      35.297  48.538  -3.950  0.00  0.00    +0.036 A 
ATOM     59  CZ  TYR A   1      34.324  49.469  -4.326  0.00  0.00    +0.134 A 
ATOM     60  CE1 TYR A   1      33.297  49.107  -5.209  0.00  0.00    +0.036 A 
ATOM     61  CD1 TYR A   1      33.240  47.818  -5.696  0.00  0.00    -0.001 A 
BRANCH  59  62
ATOM     62  OH  TYR A   1      34.375  50.769  -3.857  0.00  0.00    -0.506 OA
ATOM     63  HH  TYR A   1      33.612  51.281  -4.225  0.00  0.00    +0.292 HD
ENDBRANCH  59  62
ENDBRANCH  55  56
ENDBRANCH  52  55
ENDBRANCH  48  52
ENDBRANCH  47  49
BRANCH  47  64
ATOM     64  CB  ASP A   2      33.011  39.873  -6.008  0.00  0.00    +0.143 C 
BRANCH  64  65
ATOM     65  CG  ASP A   2      34.505  39.838  -5.728  0.00  0.00    +0.367 C 
ATOM     66  OD2 ASP A   2      34.913  39.093  -4.828  0.00  0.00    -0.246 OA
ATOM     67  OD1 ASP A   2      35.275  40.548  -6.382  0.00  0.00    -0.246 OA
ENDBRANCH  64  65
ENDBRANCH  47  64
ENDBRANCH  43  47
ENDBRANCH  42  44
BRANCH  42  68
ATOM     68  CB  ASP A   3      27.786  41.572  -6.189  0.00  0.00    +0.143 C 
BRANCH  68  69
ATOM     69  CG  ASP A   3      27.971  40.566  -5.065  0.00  0.00    +0.367 C 
ATOM     70  OD2 ASP A   3      28.456  40.991  -3.992  0.00  0.00    -0.246 OA
ATOM     71  OD1 ASP A   3      27.657  39.361  -5.266  0.00  0.00    -0.246 OA
ENDBRANCH  68  69
ENDBRANCH  42  68
ENDBRANCH  38  42
ENDBRANCH   1  40
BRANCH   1  72
ATOM     72  CB  ILE A   4      29.881  45.420  -9.671  0.00  0.00    +0.027 C 
ATOM     73  CG2 ILE A   4      29.499  46.389 -10.788  0.00  0.00    +0.002 C 
BRANCH  72  74
ATOM     74  CG1 ILE A   4      29.405  45.805  -8.278  0.00  0.00    +0.002 C 
ATOM     75  CD1 ILE A   4      29.285  47.226  -8.043  0.00  0.00    +0.000 C 
ENDBRANCH  72  74
ENDBRANCH   1  72
TORSDOF 30
REMARK  Name = ../refined-set-2016/3hu3/3hu3_pocket.pdb
REMARK  238 active torsions:
REMARK  status: ('A' for Active; 'I' for Inactive)
REMARK    1  A    between atoms: _1  and  _3
REMARK    2  A    between atoms: _3  and  _4
REMARK    3  A    between atoms: _3  and  _6
REMARK    4  A    between atoms: _9  and  _11
REMARK    5  A    between atoms: _11  and  _12
REMARK    6  A    between atoms: _11  and  _14
REMARK    7  A    between atoms: _14  and  _15
REMARK    8  A    between atoms: _20  and  _21
REMARK    9  A    between atoms: _23  and  _25
REMARK   10  A    between atoms: _25  and  _26
REMARK   11  A    between atoms: _25  and  _28
REMARK   12  A    between atoms: _28  and  _29
REMARK   13  A    between atoms: _32  and  _34
REMARK   14  A    between atoms: _34  and  _35
REMARK   15  A    between atoms: _34  and  _37
REMARK   16  A    between atoms: _37  and  _38
REMARK   17  A    between atoms: _41  and  _43
REMARK   18  A    between atoms: _43  and  _44
REMARK   19  A    between atoms: _43  and  _46
REMARK   20  A    between atoms: _46  and  _47
REMARK   21  A    between atoms: _50  and  _52
REMARK   22  A    between atoms: _52  and  _53
REMARK   23  A    between atoms: _55  and  _57
REMARK   24  A    between atoms: _57  and  _58
REMARK   25  A    between atoms: _60  and  _62
REMARK   26  A    between atoms: _62  and  _63
REMARK   27  A    between atoms: _62  and  _65
REMARK   28  A    between atoms: _67  and  _69
REMARK   29  A    between atoms: _69  and  _70
REMARK   30  A    between atoms: _69  and  _72
REMARK   31  A    between atoms: _72  and  _73
REMARK   32  A    between atoms: _73  and  _74
REMARK   33  A    between atoms: _74  and  _75
REMARK   34  A    between atoms: _84  and  _86
REMARK   35  A    between atoms: _86  and  _87
REMARK   36  A    between atoms: _86  and  _89
REMARK   37  A    between atoms: _89  and  _90
REMARK   38  A    between atoms: _90  and  _91
REMARK   39  A    between atoms: _96  and  _98
REMARK   40  A    between atoms: _98  and  _99
REMARK   41  A    between atoms: _98  and  _101
REMARK   42  A    between atoms: _101  and  _102
REMARK   43  A    between atoms: _105  and  _107
REMARK   44  A    between atoms: _107  and  _108
REMARK   45  A    between atoms: _107  and  _110
REMARK   46  A    between atoms: _110  and  _111
REMARK   47  A    between atoms: _114  and  _116
REMARK   48  A    between atoms: _116  and  _117
REMARK   49  A    between atoms: _116  and  _119
REMARK   50  A    between atoms: _119  and  _120
REMARK   51  A    between atoms: _125  and  _126
REMARK   52  A    between atoms: _128  and  _130
REMARK   53  A    between atoms: _130  and  _131
REMARK   54  A    between atoms: _134  and  _135
REMARK   55  A    between atoms: _141  and  _142
REMARK   56  A    between atoms: _147  and  _149
REMARK   57  A    between atoms: _149  and  _150
REMARK   58  A    between atoms: _152  and  _154
REMARK   59  A    between atoms: _154  and  _155
REMARK   60  A    between atoms: _154  and  _157
REMARK   61  A    between atoms: _157  and  _158
REMARK   62  A    between atoms: _161  and  _163
REMARK   63  A    between atoms: _163  and  _164
REMARK   64  A    between atoms: _166  and  _168
REMARK   65  A    between atoms: _168  and  _169
REMARK   66  A    between atoms: _168  and  _171
REMARK   67  A    between atoms: _171  and  _172
REMARK   68  A    between atoms: _172  and  _173
REMARK   69  A    between atoms: _173  and  _174
REMARK   70  A    between atoms: _174  and  _175
REMARK   71  A    between atoms: _179  and  _181
REMARK   72  A    between atoms: _181  and  _182
REMARK   73  A    between atoms: _181  and  _184
REMARK   74  A    between atoms: _184  and  _185
REMARK   75  A    between atoms: _188  and  _190
REMARK   76  A    between atoms: _190  and  _191
REMARK   77  A    between atoms: _190  and  _193
REMARK   78  A    between atoms: _193  and  _194
REMARK   79  A    between atoms: _197  and  _199
REMARK   80  A    between atoms: _199  and  _200
REMARK   81  A    between atoms: _199  and  _202
REMARK   82  A    between atoms: _202  and  _203
REMARK   83  A    between atoms: _206  and  _208
REMARK   84  A    between atoms: _208  and  _209
REMARK   85  A    between atoms: _212  and  _214
REMARK   86  A    between atoms: _214  and  _215
REMARK   87  A    between atoms: _214  and  _217
REMARK   88  A    between atoms: _217  and  _218
REMARK   89  A    between atoms: _218  and  _219
REMARK   90  A    between atoms: _219  and  _220
REMARK   91  A    between atoms: _229  and  _231
REMARK   92  A    between atoms: _231  and  _232
REMARK   93  A    between atoms: _235  and  _237
REMARK   94  A    between atoms: _237  and  _238
REMARK   95  A    between atoms: _237  and  _240
REMARK   96  A    between atoms: _240  and  _241
REMARK   97  A    between atoms: _247  and  _249
REMARK   98  A    between atoms: _249  and  _250
REMARK   99  A    between atoms: _249  and  _252
REMARK  100  A    between atoms: _252  and  _253
REMARK  101  A    between atoms: _256  and  _258
REMARK  102  A    between atoms: _258  and  _259
REMARK  103  A    between atoms: _258  and  _261
REMARK  104  A    between atoms: _261  and  _262
REMARK  105  A    between atoms: _262  and  _263
REMARK  106  A    between atoms: _266  and  _268
REMARK  107  A    between atoms: _268  and  _269
REMARK  108  A    between atoms: _268  and  _271
REMARK  109  A    between atoms: _271  and  _272
REMARK  110  A    between atoms: _275  and  _277
REMARK  111  A    between atoms: _277  and  _278
REMARK  112  A    between atoms: _281  and  _283
REMARK  113  A    between atoms: _283  and  _284
REMARK  114  A    between atoms: _283  and  _286
REMARK  115  A    between atoms: _286  and  _287
REMARK  116  A    between atoms: _290  and  _292
REMARK  117  A    between atoms: _292  and  _293
REMARK  118  A    between atoms: _292  and  _295
REMARK  119  A    between atoms: _295  and  _296
REMARK  120  A    between atoms: _301  and  _303
REMARK  121  A    between atoms: _303  and  _304
REMARK  122  A    between atoms: _303  and  _306
REMARK  123  A    between atoms: _306  and  _307
REMARK  124  A    between atoms: _307  and  _308
REMARK  125  A    between atoms: _308  and  _309
REMARK  126  A    between atoms: _318  and  _320
REMARK  127  A    between atoms: _320  and  _321
REMARK  128  A    between atoms: _320  and  _323
REMARK  129  A    between atoms: _323  and  _324
REMARK  130  A    between atoms: _327  and  _329
REMARK  131  A    between atoms: _329  and  _330
REMARK  132  A    between atoms: _333  and  _334
REMARK  133  A    between atoms: _339  and  _341
REMARK  134  A    between atoms: _341  and  _342
REMARK  135  A    between atoms: _344  and  _346
REMARK  136  A    between atoms: _346  and  _347
REMARK  137  A    between atoms: _346  and  _349
REMARK  138  A    between atoms: _349  and  _350
REMARK  139  A    between atoms: _350  and  _351
REMARK  140  A    between atoms: _351  and  _352
REMARK  141  A    between atoms: _361  and  _363
REMARK  142  A    between atoms: _363  and  _364
REMARK  143  A    between atoms: _363  and  _366
REMARK  144  A    between atoms: _366  and  _367
REMARK  145  A    between atoms: _367  and  _368
REMARK  146  A    between atoms: _371  and  _373
REMARK  147  A    between atoms: _373  and  _374
REMARK  148  A    between atoms: _373  and  _376
REMARK  149  A    between atoms: _376  and  _377
REMARK  150  A    between atoms: _380  and  _382
REMARK  151  A    between atoms: _382  and  _383
REMARK  152  A    between atoms: _382  and  _385
REMARK  153  A    between atoms: _385  and  _386
REMARK  154  A    between atoms: _389  and  _391
REMARK  155  A    between atoms: _391  and  _392
REMARK  156  A    between atoms: _391  and  _394
REMARK  157  A    between atoms: _394  and  _395
REMARK  158  A    between atoms: _395  and  _396
REMARK  159  A    between atoms: _401  and  _403
REMARK  160  A    between atoms: _403  and  _404
REMARK  161  A    between atoms: _403  and  _406
REMARK  162  A    between atoms: _406  and  _407
REMARK  163  A    between atoms: _410  and  _412
REMARK  164  A    between atoms: _412  and  _413
REMARK  165  A    between atoms: _412  and  _415
REMARK  166  A    between atoms: _415  and  _416
REMARK  167  A    between atoms: _421  and  _423
REMARK  168  A    between atoms: _423  and  _424
REMARK  169  A    between atoms: _423  and  _426
REMARK  170  A    between atoms: _429  and  _431
REMARK  171  A    between atoms: _431  and  _432
REMARK  172  A    between atoms: _434  and  _436
REMARK  173  A    between atoms: _436  and  _437
REMARK  174  A    between atoms: _440  and  _442
REMARK  175  A    between atoms: _442  and  _443
REMARK  176  A    between atoms: _442  and  _445
REMARK  177  A    between atoms: _445  and  _446
REMARK  178  A    between atoms: _449  and  _451
REMARK  179  A    between atoms: _451  and  _452
REMARK  180  A    between atoms: _451  and  _454
REMARK  181  A    between atoms: _454  and  _455
REMARK  182  A    between atoms: _458  and  _460
REMARK  183  A    between atoms: _460  and  _461
REMARK  184  A    between atoms: _464  and  _466
REMARK  185  A    between atoms: _466  and  _467
REMARK  186  A    between atoms: _470  and  _472
REMARK  187  A    between atoms: _472  and  _473
REMARK  188  A    between atoms: _472  and  _475
REMARK  189  A    between atoms: _475  and  _476
REMARK  190  A    between atoms: _478  and  _480
REMARK  191  A    between atoms: _480  and  _481
REMARK  192  A    between atoms: _480  and  _483
REMARK  193  A    between atoms: _483  and  _484
REMARK  194  A    between atoms: _484  and  _485
REMARK  195  A    between atoms: _485  and  _486
REMARK  196  A    between atoms: _486  and  _487
REMARK  197  A    between atoms: _491  and  _493
REMARK  198  A    between atoms: _493  and  _494
REMARK  199  A    between atoms: _493  and  _496
REMARK  200  A    between atoms: _496  and  _497
REMARK  201  A    between atoms: _497  and  _498
REMARK  202  A    between atoms: _498  and  _499
REMARK  203  A    between atoms: _508  and  _510
REMARK  204  A    between atoms: _510  and  _511
REMARK  205  A    between atoms: _510  and  _513
REMARK  206  A    between atoms: _513  and  _514
REMARK  207  A    between atoms: _517  and  _519
REMARK  208  A    between atoms: _519  and  _520
REMARK  209  A    between atoms: _519  and  _522
REMARK  210  A    between atoms: _522  and  _523
REMARK  211  A    between atoms: _523  and  _524
REMARK  212  A    between atoms: _530  and  _531
REMARK  213  A    between atoms: _536  and  _538
REMARK  214  A    between atoms: _538  and  _539
REMARK  215  A    between atoms: _542  and  _544
REMARK  216  A    between atoms: _544  and  _545
REMARK  217  A    between atoms: _544  and  _547
REMARK  218  A    between atoms: _547  and  _548
REMARK  219  A    between atoms: _548  and  _549
REMARK  220  A    between atoms: _549  and  _550
REMARK  221  A    between atoms: _559  and  _561
REMARK  222  A    between atoms: _561  and  _562
REMARK  223  A    between atoms: _561  and  _564
REMARK  224  A    between atoms: _564  and  _565
REMARK  225  A    between atoms: _565  and  _566
REMARK  226  A    between atoms: _566  and  _567
REMARK  227  A    between atoms: _576  and  _578
REMARK  228  A    between atoms: _578  and  _579
REMARK  229  A    between atoms: _578  and  _581
REMARK  230  A    between atoms: _581  and  _582
REMARK  231  A    between atoms: _588  and  _590
REMARK  232  A    between atoms: _590  and  _591
REMARK  233  A    between atoms: _593  and  _595
REMARK  234  A    between atoms: _595  and  _596
REMARK  235  A    between atoms: _595  and  _598
REMARK  236  A    between atoms: _598  and  _599
REMARK  237  A    between atoms: _599  and  _600
REMARK  238  A    between atoms: _600  and  _601
REMARK                            x       y       z     vdW  Elec       q    Type
REMARK                         _______ _______ _______ _____ _____    ______ ____
ROOT
ATOM      1  C   GLN A   1      34.668  52.062 -12.521  0.00  0.00    +0.238 C 
ATOM      2  O   GLN A   1      34.758  53.049 -11.804  0.00  0.00    -0.274 OA
ATOM      3  N   LEU A   2      34.826  50.823 -12.062  0.00  0.00    -0.298 N 
ATOM      4  H   LEU A   2      34.707  50.014 -12.704  0.00  0.00    +0.150 HD
ENDROOT
BRANCH   1   5
ATOM      5  CA  GLN A   1      34.371  52.225 -14.015  0.00  0.00    +0.145 C 
BRANCH   5   6
ATOM      6  N   GLN A   1      35.045  51.213 -14.844  0.00  0.00    -0.238 NA
ATOM      7  H   GLN A   1      34.510  50.390 -15.188  0.00  0.00    +0.142 HD
ENDBRANCH   5   6
BRANCH   5   8
ATOM      8  CB  GLN A   1      32.863  52.225 -14.254  0.00  0.00    +0.036 C 
BRANCH   8   9
ATOM      9  CG  GLN A   1      32.484  52.502 -15.692  0.00  0.00    +0.087 C 
BRANCH   9  10
ATOM     10  CD  GLN A   1      32.318  51.230 -16.524  0.00  0.00    +0.219 C 
ATOM     11  OE1 GLN A   1      33.027  50.246 -16.341  0.00  0.00    -0.275 OA
ATOM     12  NE2 GLN A   1      31.373  51.256 -17.436  0.00  0.00    -0.329 N 
ATOM     13 HE21 GLN A   1      30.793  52.110 -17.560  0.00  0.00    +0.145 HD
ATOM     14 HE22 GLN A   1      31.205  50.422 -18.034  0.00  0.00    +0.145 HD
ENDBRANCH   9  10
ENDBRANCH   8   9
ENDBRANCH   5   8
ENDBRANCH   1   5
BRANCH   3  15
ATOM     15  CA  LEU A   2      35.164  50.597 -10.667  0.00  0.00    +0.137 C 
BRANCH  15  16
ATOM     16  C   LEU A   2      36.572  51.155 -10.367  0.00  0.00    +0.227 C 
ATOM     17  O   LEU A   2      36.834  51.633  -9.266  0.00  0.00    -0.286 OA
ENDBRANCH  15  16
BRANCH  15  18
ATOM     18  CB  LEU A   2      35.078  49.119 -10.311  0.00  0.00    +0.028 C 
BRANCH  18  19
ATOM     19  CG  LEU A   2      33.702  48.447 -10.329  0.00  0.00    +0.002 C 
ATOM     20  CD2 LEU A   2      32.781  49.017  -9.212  0.00  0.00    +0.000 C 
ATOM     21  CD1 LEU A   2      33.893  46.947 -10.169  0.00  0.00    +0.000 C 
ENDBRANCH  18  19
ENDBRANCH  15  18
ENDBRANCH   3  15
TORSDOF 9
REMARK  Name = ../refined-set-2016/3hu3/3hu3_pocket.pdb
REMARK  238 active torsions:
REMARK  status: ('A' for Active; 'I' for Inactive)
REMARK    1  A    between atoms: _1  and  _3
REMARK    2  A    between atoms: _3  and  _4
REMARK    3  A    between atoms: _3  and  _6
REMARK    4  A    between atoms: _9  and  _11
REMARK    5  A    between atoms: _11  and  _12
REMARK    6  A    between atoms: _11  and  _14
REMARK    7  A    between atoms: _14  and  _15
REMARK    8  A    between atoms: _20  and  _21
REMARK    9  A    between atoms: _23  and  _25
REMARK   10  A    between atoms: _25  and  _26
REMARK   11  A    between atoms: _25  and  _28
REMARK   12  A    between atoms: _28  and  _29
REMARK   13  A    between atoms: _32  and  _34
REMARK   14  A    between atoms: _34  and  _35
REMARK   15  A    between atoms: _34  and  _37
REMARK   16  A    between atoms: _37  and  _38
REMARK   17  A    between atoms: _41  and  _43
REMARK   18  A    between atoms: _43  and  _44
REMARK   19  A    between atoms: _43  and  _46
REMARK   20  A    between atoms: _46  and  _47
REMARK   21  A    between atoms: _50  and  _52
REMARK   22  A    between atoms: _52  and  _53
REMARK   23  A    between atoms: _55  and  _57
REMARK   24  A    between atoms: _57  and  _58
REMARK   25  A    between atoms: _60  and  _62
REMARK   26  A    between atoms: _62  and  _63
REMARK   27  A    between atoms: _62  and  _65
REMARK   28  A    between atoms: _67  and  _69
REMARK   29  A    between atoms: _69  and  _70
REMARK   30  A    between atoms: _69  and  _72
REMARK   31  A    between atoms: _72  and  _73
REMARK   32  A    between atoms: _73  and  _74
REMARK   33  A    between atoms: _74  and  _75
REMARK   34  A    between atoms: _84  and  _86
REMARK   35  A    between atoms: _86  and  _87
REMARK   36  A    between atoms: _86  and  _89
REMARK   37  A    between atoms: _89  and  _90
REMARK   38  A    between atoms: _90  and  _91
REMARK   39  A    between atoms: _96  and  _98
REMARK   40  A    between atoms: _98  and  _99
REMARK   41  A    between atoms: _98  and  _101
REMARK   42  A    between atoms: _101  and  _102
REMARK   43  A    between atoms: _105  and  _107
REMARK   44  A    between atoms: _107  and  _108
REMARK   45  A    between atoms: _107  and  _110
REMARK   46  A    between atoms: _110  and  _111
REMARK   47  A    between atoms: _114  and  _116
REMARK   48  A    between atoms: _116  and  _117
REMARK   49  A    between atoms: _116  and  _119
REMARK   50  A    between atoms: _119  and  _120
REMARK   51  A    between atoms: _125  and  _126
REMARK   52  A    between atoms: _128  and  _130
REMARK   53  A    between atoms: _130  and  _131
REMARK   54  A    between atoms: _134  and  _135
REMARK   55  A    between atoms: _141  and  _142
REMARK   56  A    between atoms: _147  and  _149
REMARK   57  A    between atoms: _149  and  _150
REMARK   58  A    between atoms: _152  and  _154
REMARK   59  A    between atoms: _154  and  _155
REMARK   60  A    between atoms: _154  and  _157
REMARK   61  A    between atoms: _157  and  _158
REMARK   62  A    between atoms: _161  and  _163
REMARK   63  A    between atoms: _163  and  _164
REMARK   64  A    between atoms: _166  and  _168
REMARK   65  A    between atoms: _168  and  _169
REMARK   66  A    between atoms: _168  and  _171
REMARK   67  A    between atoms: _171  and  _172
REMARK   68  A    between atoms: _172  and  _173
REMARK   69  A    between atoms: _173  and  _174
REMARK   70  A    between atoms: _174  and  _175
REMARK   71  A    between atoms: _179  and  _181
REMARK   72  A    between atoms: _181  and  _182
REMARK   73  A    between atoms: _181  and  _184
REMARK   74  A    between atoms: _184  and  _185
REMARK   75  A    between atoms: _188  and  _190
REMARK   76  A    between atoms: _190  and  _191
REMARK   77  A    between atoms: _190  and  _193
REMARK   78  A    between atoms: _193  and  _194
REMARK   79  A    between atoms: _197  and  _199
REMARK   80  A    between atoms: _199  and  _200
REMARK   81  A    between atoms: _199  and  _202
REMARK   82  A    between atoms: _202  and  _203
REMARK   83  A    between atoms: _206  and  _208
REMARK   84  A    between atoms: _208  and  _209
REMARK   85  A    between atoms: _212  and  _214
REMARK   86  A    between atoms: _214  and  _215
REMARK   87  A    between atoms: _214  and  _217
REMARK   88  A    between atoms: _217  and  _218
REMARK   89  A    between atoms: _218  and  _219
REMARK   90  A    between atoms: _219  and  _220
REMARK   91  A    between atoms: _229  and  _231
REMARK   92  A    between atoms: _231  and  _232
REMARK   93  A    between atoms: _235  and  _237
REMARK   94  A    between atoms: _237  and  _238
REMARK   95  A    between atoms: _237  and  _240
REMARK   96  A    between atoms: _240  and  _241
REMARK   97  A    between atoms: _247  and  _249
REMARK   98  A    between atoms: _249  and  _250
REMARK   99  A    between atoms: _249  and  _252
REMARK  100  A    between atoms: _252  and  _253
REMARK  101  A    between atoms: _256  and  _258
REMARK  102  A    between atoms: _258  and  _259
REMARK  103  A    between atoms: _258  and  _261
REMARK  104  A    between atoms: _261  and  _262
REMARK  105  A    between atoms: _262  and  _263
REMARK  106  A    between atoms: _266  and  _268
REMARK  107  A    between atoms: _268  and  _269
REMARK  108  A    between atoms: _268  and  _271
REMARK  109  A    between atoms: _271  and  _272
REMARK  110  A    between atoms: _275  and  _277
REMARK  111  A    between atoms: _277  and  _278
REMARK  112  A    between atoms: _281  and  _283
REMARK  113  A    between atoms: _283  and  _284
REMARK  114  A    between atoms: _283  and  _286
REMARK  115  A    between atoms: _286  and  _287
REMARK  116  A    between atoms: _290  and  _292
REMARK  117  A    between atoms: _292  and  _293
REMARK  118  A    between atoms: _292  and  _295
REMARK  119  A    between atoms: _295  and  _296
REMARK  120  A    between atoms: _301  and  _303
REMARK  121  A    between atoms: _303  and  _304
REMARK  122  A    between atoms: _303  and  _306
REMARK  123  A    between atoms: _306  and  _307
REMARK  124  A    between atoms: _307  and  _308
REMARK  125  A    between atoms: _308  and  _309
REMARK  126  A    between atoms: _318  and  _320
REMARK  127  A    between atoms: _320  and  _321
REMARK  128  A    between atoms: _320  and  _323
REMARK  129  A    between atoms: _323  and  _324
REMARK  130  A    between atoms: _327  and  _329
REMARK  131  A    between atoms: _329  and  _330
REMARK  132  A    between atoms: _333  and  _334
REMARK  133  A    between atoms: _339  and  _341
REMARK  134  A    between atoms: _341  and  _342
REMARK  135  A    between atoms: _344  and  _346
REMARK  136  A    between atoms: _346  and  _347
REMARK  137  A    between atoms: _346  and  _349
REMARK  138  A    between atoms: _349  and  _350
REMARK  139  A    between atoms: _350  and  _351
REMARK  140  A    between atoms: _351  and  _352
REMARK  141  A    between atoms: _361  and  _363
REMARK  142  A    between atoms: _363  and  _364
REMARK  143  A    between atoms: _363  and  _366
REMARK  144  A    between atoms: _366  and  _367
REMARK  145  A    between atoms: _367  and  _368
REMARK  146  A    between atoms: _371  and  _373
REMARK  147  A    between atoms: _373  and  _374
REMARK  148  A    between atoms: _373  and  _376
REMARK  149  A    between atoms: _376  and  _377
REMARK  150  A    between atoms: _380  and  _382
REMARK  151  A    between atoms: _382  and  _383
REMARK  152  A    between atoms: _382  and  _385
REMARK  153  A    between atoms: _385  and  _386
REMARK  154  A    between atoms: _389  and  _391
REMARK  155  A    between atoms: _391  and  _392
REMARK  156  A    between atoms: _391  and  _394
REMARK  157  A    between atoms: _394  and  _395
REMARK  158  A    between atoms: _395  and  _396
REMARK  159  A    between atoms: _401  and  _403
REMARK  160  A    between atoms: _403  and  _404
REMARK  161  A    between atoms: _403  and  _406
REMARK  162  A    between atoms: _406  and  _407
REMARK  163  A    between atoms: _410  and  _412
REMARK  164  A    between atoms: _412  and  _413
REMARK  165  A    between atoms: _412  and  _415
REMARK  166  A    between atoms: _415  and  _416
REMARK  167  A    between atoms: _421  and  _423
REMARK  168  A    between atoms: _423  and  _424
REMARK  169  A    between atoms: _423  and  _426
REMARK  170  A    between atoms: _429  and  _431
REMARK  171  A    between atoms: _431  and  _432
REMARK  172  A    between atoms: _434  and  _436
REMARK  173  A    between atoms: _436  and  _437
REMARK  174  A    between atoms: _440  and  _442
REMARK  175  A    between atoms: _442  and  _443
REMARK  176  A    between atoms: _442  and  _445
REMARK  177  A    between atoms: _445  and  _446
REMARK  178  A    between atoms: _449  and  _451
REMARK  179  A    between atoms: _451  and  _452
REMARK  180  A    between atoms: _451  and  _454
REMARK  181  A    between atoms: _454  and  _455
REMARK  182  A    between atoms: _458  and  _460
REMARK  183  A    between atoms: _460  and  _461
REMARK  184  A    between atoms: _464  and  _466
REMARK  185  A    between atoms: _466  and  _467
REMARK  186  A    between atoms: _470  and  _472
REMARK  187  A    between atoms: _472  and  _473
REMARK  188  A    between atoms: _472  and  _475
REMARK  189  A    between atoms: _475  and  _476
REMARK  190  A    between atoms: _478  and  _480
REMARK  191  A    between atoms: _480  and  _481
REMARK  192  A    between atoms: _480  and  _483
REMARK  193  A    between atoms: _483  and  _484
REMARK  194  A    between atoms: _484  and  _485
REMARK  195  A    between atoms: _485  and  _486
REMARK  196  A    between atoms: _486  and  _487
REMARK  197  A    between atoms: _491  and  _493
REMARK  198  A    between atoms: _493  and  _494
REMARK  199  A    between atoms: _493  and  _496
REMARK  200  A    between atoms: _496  and  _497
REMARK  201  A    between atoms: _497  and  _498
REMARK  202  A    between atoms: _498  and  _499
REMARK  203  A    between atoms: _508  and  _510
REMARK  204  A    between atoms: _510  and  _511
REMARK  205  A    between atoms: _510  and  _513
REMARK  206  A    between atoms: _513  and  _514
REMARK  207  A    between atoms: _517  and  _519
REMARK  208  A    between atoms: _519  and  _520
REMARK  209  A    between atoms: _519  and  _522
REMARK  210  A    between atoms: _522  and  _523
REMARK  211  A    between atoms: _523  and  _524
REMARK  212  A    between atoms: _530  and  _531
REMARK  213  A    between atoms: _536  and  _538
REMARK  214  A    between atoms: _538  and  _539
REMARK  215  A    between atoms: _542  and  _544
REMARK  216  A    between atoms: _544  and  _545
REMARK  217  A    between atoms: _544  and  _547
REMARK  218  A    between atoms: _547  and  _548
REMARK  219  A    between atoms: _548  and  _549
REMARK  220  A    between atoms: _549  and  _550
REMARK  221  A    between atoms: _559  and  _561
REMARK  222  A    between atoms: _561  and  _562
REMARK  223  A    between atoms: _561  and  _564
REMARK  224  A    between atoms: _564  and  _565
REMARK  225  A    between atoms: _565  and  _566
REMARK  226  A    between atoms: _566  and  _567
REMARK  227  A    between atoms: _576  and  _578
REMARK  228  A    between atoms: _578  and  _579
REMARK  229  A    between atoms: _578  and  _581
REMARK  230  A    between atoms: _581  and  _582
REMARK  231  A    between atoms: _588  and  _590
REMARK  232  A    between atoms: _590  and  _591
REMARK  233  A    between atoms: _593  and  _595
REMARK  234  A    between atoms: _595  and  _596
REMARK  235  A    between atoms: _595  and  _598
REMARK  236  A    between atoms: _598  and  _599
REMARK  237  A    between atoms: _599  and  _600
REMARK  238  A    between atoms: _600  and  _601
REMARK                            x       y       z     vdW  Elec       q    Type
REMARK                         _______ _______ _______ _____ _____    ______ ____
ROOT
ATOM      1  CA  LYS A   9      24.436  52.520 -10.412  0.00  0.00    +0.149 C 
ENDROOT
BRANCH   1   2
ATOM      2  C   LYS A   9      24.201  52.328  -8.900  0.00  0.00    +0.241 C 
ATOM      3  O   LYS A   9      25.112  52.554  -8.082  0.00  0.00    -0.273 OA
ATOM      4  N   THR A  10      22.991  51.895  -8.537  0.00  0.00    -0.295 N 
ATOM      5  H   THR A  10      22.267  51.745  -9.269  0.00  0.00    +0.150 HD
BRANCH   4   6
ATOM      6  CA  THR A  10      22.655  51.625  -7.137  0.00  0.00    +0.176 C 
BRANCH   6   7
ATOM      7  C   THR A  10      23.459  50.436  -6.552  0.00  0.00    +0.243 C 
ATOM      8  O   THR A  10      23.959  50.510  -5.427  0.00  0.00    -0.273 OA
ATOM      9  N   LEU A  11      23.549  49.343  -7.301  0.00  0.00    -0.297 N 
ATOM     10  H   LEU A  11      22.970  49.278  -8.162  0.00  0.00    +0.150 HD
BRANCH   9  11
ATOM     11  CA  LEU A  11      24.429  48.229  -6.962  0.00  0.00    +0.149 C 
BRANCH  11  12
ATOM     12  C   LEU A  11      25.868  48.681  -6.600  0.00  0.00    +0.241 C 
ATOM     13  O   LEU A  11      26.424  48.267  -5.584  0.00  0.00    -0.273 OA
ATOM     14  N   ILE A  12      26.458  49.529  -7.449  0.00  0.00    -0.297 N 
ATOM     15  H   ILE A  12      25.964  49.790  -8.326  0.00  0.00    +0.150 HD
BRANCH  14  16
ATOM     16  CA  ILE A  12      27.796  50.109  -7.177  0.00  0.00    +0.149 C 
BRANCH  16  17
ATOM     17  C   ILE A  12      27.811  50.892  -5.851  0.00  0.00    +0.241 C 
ATOM     18  O   ILE A  12      28.744  50.759  -5.065  0.00  0.00    -0.273 OA
ATOM     19  N   ALA A  13      26.755  51.659  -5.582  0.00  0.00    -0.297 N 
ATOM     20  H   ALA A  13      26.004  51.751  -6.295  0.00  0.00    +0.150 HD
BRANCH  19  21
ATOM     21  CA  ALA A  13      26.619  52.379  -4.309  0.00  0.00    +0.149 C 
ATOM     22  CB  ALA A  13      25.327  53.216  -4.282  0.00  0.00    +0.031 C 
BRANCH  21  23
ATOM     23  C   ALA A  13      26.593  51.425  -3.131  0.00  0.00    +0.241 C 
ATOM     24  O   ALA A  13      27.186  51.714  -2.088  0.00  0.00    -0.273 OA
ATOM     25  N   ARG A  14      25.818  50.346  -3.272  0.00  0.00    -0.297 N 
ATOM     26  H   ARG A  14      25.224  50.253  -4.120  0.00  0.00    +0.150 HD
BRANCH  25  27
ATOM     27  CA  ARG A  14      25.788  49.295  -2.260  0.00  0.00    +0.149 C 
BRANCH  27  28
ATOM     28  C   ARG A  14      27.176  48.713  -2.051  0.00  0.00    +0.241 C 
ATOM     29  O   ARG A  14      27.605  48.564  -0.920  0.00  0.00    -0.273 OA
ATOM     30  N   ALA A  15      27.874  48.424  -3.151  0.00  0.00    -0.298 N 
ATOM     31  H   ALA A  15      27.437  48.604  -4.078  0.00  0.00    +0.150 HD
BRANCH  30  32
ATOM     32  CA  ALA A  15      29.228  47.864  -3.113  0.00  0.00    +0.137 C 
ATOM     33  CB  ALA A  15      29.732  47.588  -4.520  0.00  0.00    +0.030 C 
BRANCH  32  34
ATOM     34  C   ALA A  15      30.204  48.793  -2.404  0.00  0.00    +0.227 C 
ATOM     35  O   ALA A  15      31.015  48.363  -1.580  0.00  0.00    -0.286 OA
ENDBRANCH  32  34
ENDBRANCH  30  32
ENDBRANCH  27  28
BRANCH  27  36
ATOM     36  CB  ARG A  14      24.785  48.200  -2.593  0.00  0.00    +0.033 C 
BRANCH  36  37
ATOM     37  CG  ARG A  14      23.324  48.692  -2.710  0.00  0.00    +0.045 C 
BRANCH  37  38
ATOM     38  CD  ARG A  14      22.787  49.159  -1.366  0.00  0.00    +0.174 C 
BRANCH  38  39
ATOM     39  NE  ARG A  14      21.399  49.627  -1.475  0.00  0.00    -0.265 N 
ATOM     40  HE  ARG A  14      20.642  48.928  -1.338  0.00  0.00    +0.259 HD
ATOM     41  CZ  ARG A  14      21.042  50.879  -1.736  0.00  0.00    +0.342 C 
ATOM     42  NH2 ARG A  14      19.760  51.176  -1.794  0.00  0.00    -0.292 N 
ATOM     43 HH21 ARG A  14      19.047  50.435  -1.637  0.00  0.00    +0.255 HD
ATOM     44 HH22 ARG A  14      19.461  52.151  -1.997  0.00  0.00    +0.255 HD
ATOM     45  NH1 ARG A  14      21.971  51.827  -1.951  0.00  0.00    -0.292 N 
ATOM     46 HH11 ARG A  14      22.981  51.583  -1.914  0.00  0.00    +0.255 HD
ATOM     47 HH12 ARG A  14      21.679  52.804  -2.155  0.00  0.00    +0.255 HD
ENDBRANCH  38  39
ENDBRANCH  37  38
ENDBRANCH  36  37
ENDBRANCH  27  36
ENDBRANCH  25  27
ENDBRANCH  21  23
ENDBRANCH  19  21
ENDBRANCH  16  17
BRANCH  16  48
ATOM     48  CB  ILE A  12      28.328  50.930  -8.390  0.00  0.00    +0.027 C 
ATOM     49  CG2 ILE A  12      29.540  51.826  -8.006  0.00  0.00    +0.002 C 
BRANCH  48  50
ATOM     50  CG1 ILE A  12      28.705  49.982  -9.538  0.00  0.00    +0.002 C 
ATOM     51  CD1 ILE A  12      29.023  50.659 -10.890  0.00  0.00    +0.000 C 
ENDBRANCH  48  50
ENDBRANCH  16  48
ENDBRANCH  14  16
ENDBRANCH  11  12
BRANCH  11  52
ATOM     52  CB  LEU A  11      24.459  47.230  -8.133  0.00  0.00    +0.029 C 
BRANCH  52  53
ATOM     53  CG  LEU A  11      25.202  45.903  -7.909  0.00  0.00    +0.002 C 
ATOM     54  CD2 LEU A  11      24.441  44.986  -6.934  0.00  0.00    +0.000 C 
ATOM     55  CD1 LEU A  11      25.464  45.203  -9.231  0.00  0.00    +0.000 C 
ENDBRANCH  52  53
ENDBRANCH  11  52
ENDBRANCH   9  11
ENDBRANCH   6   7
BRANCH   6  56
ATOM     56  CB  THR A  10      21.152  51.377  -6.978  0.00  0.00    +0.137 C 
ATOM     57  CG2 THR A  10      20.808  50.887  -5.551  0.00  0.00    +0.034 C 
BRANCH  56  58
ATOM     58  OG1 THR A  10      20.438  52.594  -7.257  0.00  0.00    -0.382 OA
ATOM     59  HG1 THR A  10      20.631  52.883  -8.184  0.00  0.00    +0.210 HD
ENDBRANCH  56  58
ENDBRANCH   6  56
ENDBRANCH   4   6
ENDBRANCH   1   2
BRANCH   1  62
ATOM     60  C   GLY A   8      24.674  50.151 -10.997  0.00  0.00    +0.243 C 
ATOM     61  O   GLY A   8      25.611  49.988 -10.226  0.00  0.00    -0.273 OA
ATOM     62  N   LYS A   9      24.065  51.320 -11.161  0.00  0.00    -0.297 N 
ATOM     63  H   LYS A   9      23.291  51.385 -11.852  0.00  0.00    +0.150 HD
BRANCH  60  64
ATOM     64  CA  GLY A   8      24.156  48.995 -11.822  0.00  0.00    +0.176 C 
BRANCH  64  66
ATOM     65  C   THR A   7      23.881  49.100 -14.228  0.00  0.00    +0.243 C 
ATOM     66  N   GLY A   8      23.376  49.318 -13.013  0.00  0.00    -0.295 N 
ATOM     67  H   GLY A   8      22.422  49.720 -12.914  0.00  0.00    +0.150 HD
ATOM     68  O   THR A   7      25.036  48.706 -14.399  0.00  0.00    -0.273 OA
BRANCH  65  69
ATOM     69  CA  THR A   7      22.958  49.317 -15.439  0.00  0.00    +0.176 C 
BRANCH  69  72
ATOM     70  C   GLY A   6      20.679  48.563 -14.959  0.00  0.00    +0.243 C 
ATOM     71  O   GLY A   6      20.983  47.378 -15.076  0.00  0.00    -0.273 OA
ATOM     72  N   THR A   7      21.561  49.543 -15.079  0.00  0.00    -0.295 N 
ATOM     73  H   THR A   7      21.244  50.519 -14.909  0.00  0.00    +0.150 HD
BRANCH  70  74
ATOM     74  CA  GLY A   6      19.251  48.959 -14.605  0.00  0.00    +0.176 C 
BRANCH  74  76
ATOM     75  C   PRO A   5      18.658  50.823 -16.083  0.00  0.00    +0.241 C 
ATOM     76  N   GLY A   6      18.867  50.343 -14.857  0.00  0.00    -0.295 N 
ATOM     77  H   GLY A   6      18.751  50.983 -14.045  0.00  0.00    +0.150 HD
ATOM     78  O   PRO A   5      18.876  50.189 -17.117  0.00  0.00    -0.273 OA
BRANCH  75  82
ATOM     79  C   PRO A   4      19.948  53.258 -17.439  0.00  0.00    +0.244 C 
ATOM     80  O   PRO A   4      20.817  52.766 -16.730  0.00  0.00    -0.273 OA
ATOM     81  N   PRO A   5      18.628  53.055 -17.238  0.00  0.00    -0.272 N 
ATOM     82  CA  PRO A   5      18.078  52.224 -16.170  0.00  0.00    +0.152 C 
ATOM     83  CB  PRO A   5      16.591  52.127 -16.552  0.00  0.00    +0.031 C 
ATOM     84  CG  PRO A   5      16.318  53.448 -17.252  0.00  0.00    +0.024 C 
ATOM     85  CD  PRO A   5      17.556  53.767 -17.985  0.00  0.00    +0.094 C 
BRANCH  79  89
ATOM     86  C   GLY A   3      22.204  55.341 -17.548  0.00  0.00    +0.246 C 
ATOM     87  O   GLY A   3      21.450  55.714 -16.639  0.00  0.00    -0.273 OA
ATOM     88  N   PRO A   4      21.799  54.518 -18.547  0.00  0.00    -0.272 N 
ATOM     89  CA  PRO A   4      20.357  54.146 -18.611  0.00  0.00    +0.152 C 
ATOM     90  CB  PRO A   4      20.245  53.374 -19.940  0.00  0.00    +0.031 C 
ATOM     91  CG  PRO A   4      21.596  52.781 -20.156  0.00  0.00    +0.024 C 
ATOM     92  CD  PRO A   4      22.589  53.841 -19.591  0.00  0.00    +0.094 C 
BRANCH  86  93
ATOM     93  CA  GLY A   3      23.652  55.803 -17.556  0.00  0.00    +0.176 C 
BRANCH  93  96
ATOM     94  C   TYR A   2      25.062  57.046 -15.983  0.00  0.00    +0.241 C 
ATOM     95  O   TYR A   2      26.070  56.418 -16.275  0.00  0.00    -0.273 OA
ATOM     96  N   GLY A   3      23.864  56.775 -16.478  0.00  0.00    -0.295 N 
ATOM     97  H   GLY A   3      23.039  57.272 -16.086  0.00  0.00    +0.150 HD
BRANCH  94  98
ATOM     98  CA  TYR A   2      25.134  58.225 -15.024  0.00  0.00    +0.153 C 
BRANCH  98 101
ATOM     99  C   LEU A   1      26.239  58.323 -12.906  0.00  0.00    +0.238 C 
ATOM    100  O   LEU A   1      25.190  58.682 -12.352  0.00  0.00    -0.274 OA
ATOM    101  N   TYR A   2      26.322  58.091 -14.206  0.00  0.00    -0.297 N 
ATOM    102  H   TYR A   2      27.229  57.816 -14.635  0.00  0.00    +0.150 HD
BRANCH  99 103
ATOM    103  CA  LEU A   1      27.527  58.125 -12.109  0.00  0.00    +0.145 C 
BRANCH 103 104
ATOM    104  N   LEU A   1      27.744  59.306 -11.298  0.00  0.00    -0.238 NA
ATOM    105  H   LEU A   1      27.400  59.338 -10.317  0.00  0.00    +0.142 HD
ENDBRANCH 103 104
BRANCH 103 106
ATOM    106  CB  LEU A   1      27.413  56.853 -11.273  0.00  0.00    +0.026 C 
BRANCH 106 107
ATOM    107  CG  LEU A   1      28.217  56.585 -10.001  0.00  0.00    +0.002 C 
ATOM    108  CD2 LEU A   1      28.183  55.063  -9.706  0.00  0.00    +0.000 C 
ATOM    109  CD1 LEU A   1      29.652  57.124 -10.087  0.00  0.00    +0.000 C 
ENDBRANCH 106 107
ENDBRANCH 103 106
ENDBRANCH  99 103
ENDBRANCH  98 101
BRANCH  98 110
ATOM    110  CB  TYR A   2      25.157  59.566 -15.787  0.00  0.00    +0.055 C 
BRANCH 110 111
ATOM    111  CG  TYR A   2      26.193  59.595 -16.891  0.00  0.00    -0.020 A 
ATOM    112  CD2 TYR A   2      27.481  60.053 -16.635  0.00  0.00    -0.001 A 
ATOM    113  CE2 TYR A   2      28.454  60.082 -17.643  0.00  0.00    +0.036 A 
ATOM    114  CZ  TYR A   2      28.142  59.645 -18.922  0.00  0.00    +0.134 A 
ATOM    115  CE1 TYR A   2      26.859  59.182 -19.219  0.00  0.00    +0.036 A 
ATOM    116  CD1 TYR A   2      25.891  59.146 -18.191  0.00  0.00    -0.001 A 
BRANCH 114 117
ATOM    117  OH  TYR A   2      29.133  59.685 -19.885  0.00  0.00    -0.506 OA
ATOM    118  HH  TYR A   2      28.772  59.346 -20.742  0.00  0.00    +0.292 HD
ENDBRANCH 114 117
ENDBRANCH 110 111
ENDBRANCH  98 110
ENDBRANCH  94  98
ENDBRANCH  93  96
ENDBRANCH  86  93
ENDBRANCH  79  89
ENDBRANCH  75  82
ENDBRANCH  74  76
ENDBRANCH  70  74
ENDBRANCH  69  72
BRANCH  69 119
ATOM    119  CB  THR A   7      23.546  50.472 -16.267  0.00  0.00    +0.137 C 
ATOM    120  CG2 THR A   7      22.987  50.463 -17.672  0.00  0.00    +0.034 C 
BRANCH 119 121
ATOM    121  OG1 THR A   7      23.289  51.739 -15.619  0.00  0.00    -0.382 OA
ATOM    122  HG1 THR A   7      22.312  51.870 -15.530  0.00  0.00    +0.210 HD
ENDBRANCH 119 121
ENDBRANCH  69 119
ENDBRANCH  65  69
ENDBRANCH  64  66
ENDBRANCH  60  64
ENDBRANCH   1  62
BRANCH   1 123
ATOM    123  CB  LYS A   9      23.685  53.750 -10.972  0.00  0.00    +0.029 C 
BRANCH 123 124
ATOM    124  CG  LYS A   9      24.101  54.068 -12.440  0.00  0.00    +0.000 C 
BRANCH 124 125
ATOM    125  CD  LYS A   9      23.439  55.303 -13.065  0.00  0.00    -0.024 C 
BRANCH 125 126
ATOM    126  CE  LYS A   9      21.938  55.133 -13.397  0.00  0.00    -0.086 C 
BRANCH 126 127
ATOM    127  NZ  LYS A   9      21.540  53.872 -14.134  0.00  0.00    +0.380 N 
ATOM    128  HZ1 LYS A   9      21.798  53.042 -13.563  0.00  0.00    -0.089 HD
ATOM    129  HZ2 LYS A   9      20.513  53.877 -14.297  0.00  0.00    -0.089 HD
ATOM    130  HZ3 LYS A   9      22.037  53.834 -15.047  0.00  0.00    -0.089 HD
ENDBRANCH 126 127
ENDBRANCH 125 126
ENDBRANCH 124 125
ENDBRANCH 123 124
ENDBRANCH   1 123
TORSDOF 50
REMARK  Name = ../refined-set-2016/3hu3/3hu3_pocket.pdb
REMARK  238 active torsions:
REMARK  status: ('A' for Active; 'I' for Inactive)
REMARK    1  A    between atoms: _1  and  _3
REMARK    2  A    between atoms: _3  and  _4
REMARK    3  A    between atoms: _3  and  _6
REMARK    4  A    between atoms: _9  and  _11
REMARK    5  A    between atoms: _11  and  _12
REMARK    6  A    between atoms: _11  and  _14
REMARK    7  A    between atoms: _14  and  _15
REMARK    8  A    between atoms: _20  and  _21
REMARK    9  A    between atoms: _23  and  _25
REMARK   10  A    between atoms: _25  and  _26
REMARK   11  A    between atoms: _25  and  _28
REMARK   12  A    between atoms: _28  and  _29
REMARK   13  A    between atoms: _32  and  _34
REMARK   14  A    between atoms: _34  and  _35
REMARK   15  A    between atoms: _34  and  _37
REMARK   16  A    between atoms: _37  and  _38
REMARK   17  A    between atoms: _41  and  _43
REMARK   18  A    between atoms: _43  and  _44
REMARK   19  A    between atoms: _43  and  _46
REMARK   20  A    between atoms: _46  and  _47
REMARK   21  A    between atoms: _50  and  _52
REMARK   22  A    between atoms: _52  and  _53
REMARK   23  A    between atoms: _55  and  _57
REMARK   24  A    between atoms: _57  and  _58
REMARK   25  A    between atoms: _60  and  _62
REMARK   26  A    between atoms: _62  and  _63
REMARK   27  A    between atoms: _62  and  _65
REMARK   28  A    between atoms: _67  and  _69
REMARK   29  A    between atoms: _69  and  _70
REMARK   30  A    between atoms: _69  and  _72
REMARK   31  A    between atoms: _72  and  _73
REMARK   32  A    between atoms: _73  and  _74
REMARK   33  A    between atoms: _74  and  _75
REMARK   34  A    between atoms: _84  and  _86
REMARK   35  A    between atoms: _86  and  _87
REMARK   36  A    between atoms: _86  and  _89
REMARK   37  A    between atoms: _89  and  _90
REMARK   38  A    between atoms: _90  and  _91
REMARK   39  A    between atoms: _96  and  _98
REMARK   40  A    between atoms: _98  and  _99
REMARK   41  A    between atoms: _98  and  _101
REMARK   42  A    between atoms: _101  and  _102
REMARK   43  A    between atoms: _105  and  _107
REMARK   44  A    between atoms: _107  and  _108
REMARK   45  A    between atoms: _107  and  _110
REMARK   46  A    between atoms: _110  and  _111
REMARK   47  A    between atoms: _114  and  _116
REMARK   48  A    between atoms: _116  and  _117
REMARK   49  A    between atoms: _116  and  _119
REMARK   50  A    between atoms: _119  and  _120
REMARK   51  A    between atoms: _125  and  _126
REMARK   52  A    between atoms: _128  and  _130
REMARK   53  A    between atoms: _130  and  _131
REMARK   54  A    between atoms: _134  and  _135
REMARK   55  A    between atoms: _141  and  _142
REMARK   56  A    between atoms: _147  and  _149
REMARK   57  A    between atoms: _149  and  _150
REMARK   58  A    between atoms: _152  and  _154
REMARK   59  A    between atoms: _154  and  _155
REMARK   60  A    between atoms: _154  and  _157
REMARK   61  A    between atoms: _157  and  _158
REMARK   62  A    between atoms: _161  and  _163
REMARK   63  A    between atoms: _163  and  _164
REMARK   64  A    between atoms: _166  and  _168
REMARK   65  A    between atoms: _168  and  _169
REMARK   66  A    between atoms: _168  and  _171
REMARK   67  A    between atoms: _171  and  _172
REMARK   68  A    between atoms: _172  and  _173
REMARK   69  A    between atoms: _173  and  _174
REMARK   70  A    between atoms: _174  and  _175
REMARK   71  A    between atoms: _179  and  _181
REMARK   72  A    between atoms: _181  and  _182
REMARK   73  A    between atoms: _181  and  _184
REMARK   74  A    between atoms: _184  and  _185
REMARK   75  A    between atoms: _188  and  _190
REMARK   76  A    between atoms: _190  and  _191
REMARK   77  A    between atoms: _190  and  _193
REMARK   78  A    between atoms: _193  and  _194
REMARK   79  A    between atoms: _197  and  _199
REMARK   80  A    between atoms: _199  and  _200
REMARK   81  A    between atoms: _199  and  _202
REMARK   82  A    between atoms: _202  and  _203
REMARK   83  A    between atoms: _206  and  _208
REMARK   84  A    between atoms: _208  and  _209
REMARK   85  A    between atoms: _212  and  _214
REMARK   86  A    between atoms: _214  and  _215
REMARK   87  A    between atoms: _214  and  _217
REMARK   88  A    between atoms: _217  and  _218
REMARK   89  A    between atoms: _218  and  _219
REMARK   90  A    between atoms: _219  and  _220
REMARK   91  A    between atoms: _229  and  _231
REMARK   92  A    between atoms: _231  and  _232
REMARK   93  A    between atoms: _235  and  _237
REMARK   94  A    between atoms: _237  and  _238
REMARK   95  A    between atoms: _237  and  _240
REMARK   96  A    between atoms: _240  and  _241
REMARK   97  A    between atoms: _247  and  _249
REMARK   98  A    between atoms: _249  and  _250
REMARK   99  A    between atoms: _249  and  _252
REMARK  100  A    between atoms: _252  and  _253
REMARK  101  A    between atoms: _256  and  _258
REMARK  102  A    between atoms: _258  and  _259
REMARK  103  A    between atoms: _258  and  _261
REMARK  104  A    between atoms: _261  and  _262
REMARK  105  A    between atoms: _262  and  _263
REMARK  106  A    between atoms: _266  and  _268
REMARK  107  A    between atoms: _268  and  _269
REMARK  108  A    between atoms: _268  and  _271
REMARK  109  A    between atoms: _271  and  _272
REMARK  110  A    between atoms: _275  and  _277
REMARK  111  A    between atoms: _277  and  _278
REMARK  112  A    between atoms: _281  and  _283
REMARK  113  A    between atoms: _283  and  _284
REMARK  114  A    between atoms: _283  and  _286
REMARK  115  A    between atoms: _286  and  _287
REMARK  116  A    between atoms: _290  and  _292
REMARK  117  A    between atoms: _292  and  _293
REMARK  118  A    between atoms: _292  and  _295
REMARK  119  A    between atoms: _295  and  _296
REMARK  120  A    between atoms: _301  and  _303
REMARK  121  A    between atoms: _303  and  _304
REMARK  122  A    between atoms: _303  and  _306
REMARK  123  A    between atoms: _306  and  _307
REMARK  124  A    between atoms: _307  and  _308
REMARK  125  A    between atoms: _308  and  _309
REMARK  126  A    between atoms: _318  and  _320
REMARK  127  A    between atoms: _320  and  _321
REMARK  128  A    between atoms: _320  and  _323
REMARK  129  A    between atoms: _323  and  _324
REMARK  130  A    between atoms: _327  and  _329
REMARK  131  A    between atoms: _329  and  _330
REMARK  132  A    between atoms: _333  and  _334
REMARK  133  A    between atoms: _339  and  _341
REMARK  134  A    between atoms: _341  and  _342
REMARK  135  A    between atoms: _344  and  _346
REMARK  136  A    between atoms: _346  and  _347
REMARK  137  A    between atoms: _346  and  _349
REMARK  138  A    between atoms: _349  and  _350
REMARK  139  A    between atoms: _350  and  _351
REMARK  140  A    between atoms: _351  and  _352
REMARK  141  A    between atoms: _361  and  _363
REMARK  142  A    between atoms: _363  and  _364
REMARK  143  A    between atoms: _363  and  _366
REMARK  144  A    between atoms: _366  and  _367
REMARK  145  A    between atoms: _367  and  _368
REMARK  146  A    between atoms: _371  and  _373
REMARK  147  A    between atoms: _373  and  _374
REMARK  148  A    between atoms: _373  and  _376
REMARK  149  A    between atoms: _376  and  _377
REMARK  150  A    between atoms: _380  and  _382
REMARK  151  A    between atoms: _382  and  _383
REMARK  152  A    between atoms: _382  and  _385
REMARK  153  A    between atoms: _385  and  _386
REMARK  154  A    between atoms: _389  and  _391
REMARK  155  A    between atoms: _391  and  _392
REMARK  156  A    between atoms: _391  and  _394
REMARK  157  A    between atoms: _394  and  _395
REMARK  158  A    between atoms: _395  and  _396
REMARK  159  A    between atoms: _401  and  _403
REMARK  160  A    between atoms: _403  and  _404
REMARK  161  A    between atoms: _403  and  _406
REMARK  162  A    between atoms: _406  and  _407
REMARK  163  A    between atoms: _410  and  _412
REMARK  164  A    between atoms: _412  and  _413
REMARK  165  A    between atoms: _412  and  _415
REMARK  166  A    between atoms: _415  and  _416
REMARK  167  A    between atoms: _421  and  _423
REMARK  168  A    between atoms: _423  and  _424
REMARK  169  A    between atoms: _423  and  _426
REMARK  170  A    between atoms: _429  and  _431
REMARK  171  A    between atoms: _431  and  _432
REMARK  172  A    between atoms: _434  and  _436
REMARK  173  A    between atoms: _436  and  _437
REMARK  174  A    between atoms: _440  and  _442
REMARK  175  A    between atoms: _442  and  _443
REMARK  176  A    between atoms: _442  and  _445
REMARK  177  A    between atoms: _445  and  _446
REMARK  178  A    between atoms: _449  and  _451
REMARK  179  A    between atoms: _451  and  _452
REMARK  180  A    between atoms: _451  and  _454
REMARK  181  A    between atoms: _454  and  _455
REMARK  182  A    between atoms: _458  and  _460
REMARK  183  A    between atoms: _460  and  _461
REMARK  184  A    between atoms: _464  and  _466
REMARK  185  A    between atoms: _466  and  _467
REMARK  186  A    between atoms: _470  and  _472
REMARK  187  A    between atoms: _472  and  _473
REMARK  188  A    between atoms: _472  and  _475
REMARK  189  A    between atoms: _475  and  _476
REMARK  190  A    between atoms: _478  and  _480
REMARK  191  A    between atoms: _480  and  _481
REMARK  192  A    between atoms: _480  and  _483
REMARK  193  A    between atoms: _483  and  _484
REMARK  194  A    between atoms: _484  and  _485
REMARK  195  A    between atoms: _485  and  _486
REMARK  196  A    between atoms: _486  and  _487
REMARK  197  A    between atoms: _491  and  _493
REMARK  198  A    between atoms: _493  and  _494
REMARK  199  A    between atoms: _493  and  _496
REMARK  200  A    between atoms: _496  and  _497
REMARK  201  A    between atoms: _497  and  _498
REMARK  202  A    between atoms: _498  and  _499
REMARK  203  A    between atoms: _508  and  _510
REMARK  204  A    between atoms: _510  and  _511
REMARK  205  A    between atoms: _510  and  _513
REMARK  206  A    between atoms: _513  and  _514
REMARK  207  A    between atoms: _517  and  _519
REMARK  208  A    between atoms: _519  and  _520
REMARK  209  A    between atoms: _519  and  _522
REMARK  210  A    between atoms: _522  and  _523
REMARK  211  A    between atoms: _523  and  _524
REMARK  212  A    between atoms: _530  and  _531
REMARK  213  A    between atoms: _536  and  _538
REMARK  214  A    between atoms: _538  and  _539
REMARK  215  A    between atoms: _542  and  _544
REMARK  216  A    between atoms: _544  and  _545
REMARK  217  A    between atoms: _544  and  _547
REMARK  218  A    between atoms: _547  and  _548
REMARK  219  A    between atoms: _548  and  _549
REMARK  220  A    between atoms: _549  and  _550
REMARK  221  A    between atoms: _559  and  _561
REMARK  222  A    between atoms: _561  and  _562
REMARK  223  A    between atoms: _561  and  _564
REMARK  224  A    between atoms: _564  and  _565
REMARK  225  A    between atoms: _565  and  _566
REMARK  226  A    between atoms: _566  and  _567
REMARK  227  A    between atoms: _576  and  _578
REMARK  228  A    between atoms: _578  and  _579
REMARK  229  A    between atoms: _578  and  _581
REMARK  230  A    between atoms: _581  and  _582
REMARK  231  A    between atoms: _588  and  _590
REMARK  232  A    between atoms: _590  and  _591
REMARK  233  A    between atoms: _593  and  _595
REMARK  234  A    between atoms: _595  and  _596
REMARK  235  A    between atoms: _595  and  _598
REMARK  236  A    between atoms: _598  and  _599
REMARK  237  A    between atoms: _599  and  _600
REMARK  238  A    between atoms: _600  and  _601
REMARK                            x       y       z     vdW  Elec       q    Type
REMARK                         _______ _______ _______ _____ _____    ______ ____
ROOT
ATOM      1  CB  PHE A   1      26.297  57.564  -2.242  0.00  0.00    +0.051 C 
ENDROOT
BRANCH   1   2
ATOM      2  CG  PHE A   1      26.120  57.042  -3.658  0.00  0.00    -0.020 A 
ATOM      3  CD2 PHE A   1      24.880  57.092  -4.299  0.00  0.00    -0.004 A 
ATOM      4  CE2 PHE A   1      24.727  56.603  -5.604  0.00  0.00    -0.000 A 
ATOM      5  CZ  PHE A   1      25.799  56.028  -6.265  0.00  0.00    -0.000 A 
ATOM      6  CE1 PHE A   1      27.046  55.940  -5.618  0.00  0.00    -0.000 A 
ATOM      7  CD1 PHE A   1      27.191  56.444  -4.320  0.00  0.00    -0.004 A 
ENDBRANCH   1   2
BRANCH   1   8
ATOM      8  CA  PHE A   1      26.207  59.095  -2.128  0.00  0.00    +0.137 C 
BRANCH   8   9
ATOM      9  N   PHE A   1      26.746  59.549  -0.847  0.00  0.00    -0.239 NA
ATOM     10  H   PHE A   1      26.304  59.213   0.032  0.00  0.00    +0.142 HD
ENDBRANCH   8   9
BRANCH   8  11
ATOM     11  C   PHE A   1      24.750  59.541  -2.265  0.00  0.00    +0.224 C 
ATOM     12  O   PHE A   1      23.880  59.172  -1.485  0.00  0.00    -0.287 OA
ENDBRANCH   8  11
ENDBRANCH   1   8
TORSDOF 4
REMARK  Name = ../refined-set-2016/3hu3/3hu3_pocket.pdb
REMARK  238 active torsions:
REMARK  status: ('A' for Active; 'I' for Inactive)
REMARK    1  A    between atoms: _1  and  _3
REMARK    2  A    between atoms: _3  and  _4
REMARK    3  A    between atoms: _3  and  _6
REMARK    4  A    between atoms: _9  and  _11
REMARK    5  A    between atoms: _11  and  _12
REMARK    6  A    between atoms: _11  and  _14
REMARK    7  A    between atoms: _14  and  _15
REMARK    8  A    between atoms: _20  and  _21
REMARK    9  A    between atoms: _23  and  _25
REMARK   10  A    between atoms: _25  and  _26
REMARK   11  A    between atoms: _25  and  _28
REMARK   12  A    between atoms: _28  and  _29
REMARK   13  A    between atoms: _32  and  _34
REMARK   14  A    between atoms: _34  and  _35
REMARK   15  A    between atoms: _34  and  _37
REMARK   16  A    between atoms: _37  and  _38
REMARK   17  A    between atoms: _41  and  _43
REMARK   18  A    between atoms: _43  and  _44
REMARK   19  A    between atoms: _43  and  _46
REMARK   20  A    between atoms: _46  and  _47
REMARK   21  A    between atoms: _50  and  _52
REMARK   22  A    between atoms: _52  and  _53
REMARK   23  A    between atoms: _55  and  _57
REMARK   24  A    between atoms: _57  and  _58
REMARK   25  A    between atoms: _60  and  _62
REMARK   26  A    between atoms: _62  and  _63
REMARK   27  A    between atoms: _62  and  _65
REMARK   28  A    between atoms: _67  and  _69
REMARK   29  A    between atoms: _69  and  _70
REMARK   30  A    between atoms: _69  and  _72
REMARK   31  A    between atoms: _72  and  _73
REMARK   32  A    between atoms: _73  and  _74
REMARK   33  A    between atoms: _74  and  _75
REMARK   34  A    between atoms: _84  and  _86
REMARK   35  A    between atoms: _86  and  _87
REMARK   36  A    between atoms: _86  and  _89
REMARK   37  A    between atoms: _89  and  _90
REMARK   38  A    between atoms: _90  and  _91
REMARK   39  A    between atoms: _96  and  _98
REMARK   40  A    between atoms: _98  and  _99
REMARK   41  A    between atoms: _98  and  _101
REMARK   42  A    between atoms: _101  and  _102
REMARK   43  A    between atoms: _105  and  _107
REMARK   44  A    between atoms: _107  and  _108
REMARK   45  A    between atoms: _107  and  _110
REMARK   46  A    between atoms: _110  and  _111
REMARK   47  A    between atoms: _114  and  _116
REMARK   48  A    between atoms: _116  and  _117
REMARK   49  A    between atoms: _116  and  _119
REMARK   50  A    between atoms: _119  and  _120
REMARK   51  A    between atoms: _125  and  _126
REMARK   52  A    between atoms: _128  and  _130
REMARK   53  A    between atoms: _130  and  _131
REMARK   54  A    between atoms: _134  and  _135
REMARK   55  A    between atoms: _141  and  _142
REMARK   56  A    between atoms: _147  and  _149
REMARK   57  A    between atoms: _149  and  _150
REMARK   58  A    between atoms: _152  and  _154
REMARK   59  A    between atoms: _154  and  _155
REMARK   60  A    between atoms: _154  and  _157
REMARK   61  A    between atoms: _157  and  _158
REMARK   62  A    between atoms: _161  and  _163
REMARK   63  A    between atoms: _163  and  _164
REMARK   64  A    between atoms: _166  and  _168
REMARK   65  A    between atoms: _168  and  _169
REMARK   66  A    between atoms: _168  and  _171
REMARK   67  A    between atoms: _171  and  _172
REMARK   68  A    between atoms: _172  and  _173
REMARK   69  A    between atoms: _173  and  _174
REMARK   70  A    between atoms: _174  and  _175
REMARK   71  A    between atoms: _179  and  _181
REMARK   72  A    between atoms: _181  and  _182
REMARK   73  A    between atoms: _181  and  _184
REMARK   74  A    between atoms: _184  and  _185
REMARK   75  A    between atoms: _188  and  _190
REMARK   76  A    between atoms: _190  and  _191
REMARK   77  A    between atoms: _190  and  _193
REMARK   78  A    between atoms: _193  and  _194
REMARK   79  A    between atoms: _197  and  _199
REMARK   80  A    between atoms: _199  and  _200
REMARK   81  A    between atoms: _199  and  _202
REMARK   82  A    between atoms: _202  and  _203
REMARK   83  A    between atoms: _206  and  _208
REMARK   84  A    between atoms: _208  and  _209
REMARK   85  A    between atoms: _212  and  _214
REMARK   86  A    between atoms: _214  and  _215
REMARK   87  A    between atoms: _214  and  _217
REMARK   88  A    between atoms: _217  and  _218
REMARK   89  A    between atoms: _218  and  _219
REMARK   90  A    between atoms: _219  and  _220
REMARK   91  A    between atoms: _229  and  _231
REMARK   92  A    between atoms: _231  and  _232
REMARK   93  A    between atoms: _235  and  _237
REMARK   94  A    between atoms: _237  and  _238
REMARK   95  A    between atoms: _237  and  _240
REMARK   96  A    between atoms: _240  and  _241
REMARK   97  A    between atoms: _247  and  _249
REMARK   98  A    between atoms: _249  and  _250
REMARK   99  A    between atoms: _249  and  _252
REMARK  100  A    between atoms: _252  and  _253
REMARK  101  A    between atoms: _256  and  _258
REMARK  102  A    between atoms: _258  and  _259
REMARK  103  A    between atoms: _258  and  _261
REMARK  104  A    between atoms: _261  and  _262
REMARK  105  A    between atoms: _262  and  _263
REMARK  106  A    between atoms: _266  and  _268
REMARK  107  A    between atoms: _268  and  _269
REMARK  108  A    between atoms: _268  and  _271
REMARK  109  A    between atoms: _271  and  _272
REMARK  110  A    between atoms: _275  and  _277
REMARK  111  A    between atoms: _277  and  _278
REMARK  112  A    between atoms: _281  and  _283
REMARK  113  A    between atoms: _283  and  _284
REMARK  114  A    between atoms: _283  and  _286
REMARK  115  A    between atoms: _286  and  _287
REMARK  116  A    between atoms: _290  and  _292
REMARK  117  A    between atoms: _292  and  _293
REMARK  118  A    between atoms: _292  and  _295
REMARK  119  A    between atoms: _295  and  _296
REMARK  120  A    between atoms: _301  and  _303
REMARK  121  A    between atoms: _303  and  _304
REMARK  122  A    between atoms: _303  and  _306
REMARK  123  A    between atoms: _306  and  _307
REMARK  124  A    between atoms: _307  and  _308
REMARK  125  A    between atoms: _308  and  _309
REMARK  126  A    between atoms: _318  and  _320
REMARK  127  A    between atoms: _320  and  _321
REMARK  128  A    between atoms: _320  and  _323
REMARK  129  A    between atoms: _323  and  _324
REMARK  130  A    between atoms: _327  and  _329
REMARK  131  A    between atoms: _329  and  _330
REMARK  132  A    between atoms: _333  and  _334
REMARK  133  A    between atoms: _339  and  _341
REMARK  134  A    between atoms: _341  and  _342
REMARK  135  A    between atoms: _344  and  _346
REMARK  136  A    between atoms: _346  and  _347
REMARK  137  A    between atoms: _346  and  _349
REMARK  138  A    between atoms: _349  and  _350
REMARK  139  A    between atoms: _350  and  _351
REMARK  140  A    between atoms: _351  and  _352
REMARK  141  A    between atoms: _361  and  _363
REMARK  142  A    between atoms: _363  and  _364
REMARK  143  A    between atoms: _363  and  _366
REMARK  144  A    between atoms: _366  and  _367
REMARK  145  A    between atoms: _367  and  _368
REMARK  146  A    between atoms: _371  and  _373
REMARK  147  A    between atoms: _373  and  _374
REMARK  148  A    between atoms: _373  and  _376
REMARK  149  A    between atoms: _376  and  _377
REMARK  150  A    between atoms: _380  and  _382
REMARK  151  A    between atoms: _382  and  _383
REMARK  152  A    between atoms: _382  and  _385
REMARK  153  A    between atoms: _385  and  _386
REMARK  154  A    between atoms: _389  and  _391
REMARK  155  A    between atoms: _391  and  _392
REMARK  156  A    between atoms: _391  and  _394
REMARK  157  A    between atoms: _394  and  _395
REMARK  158  A    between atoms: _395  and  _396
REMARK  159  A    between atoms: _401  and  _403
REMARK  160  A    between atoms: _403  and  _404
REMARK  161  A    between atoms: _403  and  _406
REMARK  162  A    between atoms: _406  and  _407
REMARK  163  A    between atoms: _410  and  _412
REMARK  164  A    between atoms: _412  and  _413
REMARK  165  A    between atoms: _412  and  _415
REMARK  166  A    between atoms: _415  and  _416
REMARK  167  A    between atoms: _421  and  _423
REMARK  168  A    between atoms: _423  and  _424
REMARK  169  A    between atoms: _423  and  _426
REMARK  170  A    between atoms: _429  and  _431
REMARK  171  A    between atoms: _431  and  _432
REMARK  172  A    between atoms: _434  and  _436
REMARK  173  A    between atoms: _436  and  _437
REMARK  174  A    between atoms: _440  and  _442
REMARK  175  A    between atoms: _442  and  _443
REMARK  176  A    between atoms: _442  and  _445
REMARK  177  A    between atoms: _445  and  _446
REMARK  178  A    between atoms: _449  and  _451
REMARK  179  A    between atoms: _451  and  _452
REMARK  180  A    between atoms: _451  and  _454
REMARK  181  A    between atoms: _454  and  _455
REMARK  182  A    between atoms: _458  and  _460
REMARK  183  A    between atoms: _460  and  _461
REMARK  184  A    between atoms: _464  and  _466
REMARK  185  A    between atoms: _466  and  _467
REMARK  186  A    between atoms: _470  and  _472
REMARK  187  A    between atoms: _472  and  _473
REMARK  188  A    between atoms: _472  and  _475
REMARK  189  A    between atoms: _475  and  _476
REMARK  190  A    between atoms: _478  and  _480
REMARK  191  A    between atoms: _480  and  _481
REMARK  192  A    between atoms: _480  and  _483
REMARK  193  A    between atoms: _483  and  _484
REMARK  194  A    between atoms: _484  and  _485
REMARK  195  A    between atoms: _485  and  _486
REMARK  196  A    between atoms: _486  and  _487
REMARK  197  A    between atoms: _491  and  _493
REMARK  198  A    between atoms: _493  and  _494
REMARK  199  A    between atoms: _493  and  _496
REMARK  200  A    between atoms: _496  and  _497
REMARK  201  A    between atoms: _497  and  _498
REMARK  202  A    between atoms: _498  and  _499
REMARK  203  A    between atoms: _508  and  _510
REMARK  204  A    between atoms: _510  and  _511
REMARK  205  A    between atoms: _510  and  _513
REMARK  206  A    between atoms: _513  and  _514
REMARK  207  A    between atoms: _517  and  _519
REMARK  208  A    between atoms: _519  and  _520
REMARK  209  A    between atoms: _519  and  _522
REMARK  210  A    between atoms: _522  and  _523
REMARK  211  A    between atoms: _523  and  _524
REMARK  212  A    between atoms: _530  and  _531
REMARK  213  A    between atoms: _536  and  _538
REMARK  214  A    between atoms: _538  and  _539
REMARK  215  A    between atoms: _542  and  _544
REMARK  216  A    between atoms: _544  and  _545
REMARK  217  A    between atoms: _544  and  _547
REMARK  218  A    between atoms: _547  and  _548
REMARK  219  A    between atoms: _548  and  _549
REMARK  220  A    between atoms: _549  and  _550
REMARK  221  A    between atoms: _559  and  _561
REMARK  222  A    between atoms: _561  and  _562
REMARK  223  A    between atoms: _561  and  _564
REMARK  224  A    between atoms: _564  and  _565
REMARK  225  A    between atoms: _565  and  _566
REMARK  226  A    between atoms: _566  and  _567
REMARK  227  A    between atoms: _576  and  _578
REMARK  228  A    between atoms: _578  and  _579
REMARK  229  A    between atoms: _578  and  _581
REMARK  230  A    between atoms: _581  and  _582
REMARK  231  A    between atoms: _588  and  _590
REMARK  232  A    between atoms: _590  and  _591
REMARK  233  A    between atoms: _593  and  _595
REMARK  234  A    between atoms: _595  and  _596
REMARK  235  A    between atoms: _595  and  _598
REMARK  236  A    between atoms: _598  and  _599
REMARK  237  A    between atoms: _599  and  _600
REMARK  238  A    between atoms: _600  and  _601
REMARK                            x       y       z     vdW  Elec       q    Type
REMARK                         _______ _______ _______ _____ _____    ______ ____
ROOT
ATOM      1  C   ASP A   1      19.957  58.856  -6.066  0.00  0.00    +0.239 C 
ATOM      2  O   ASP A   1      19.178  59.484  -5.371  0.00  0.00    -0.274 OA
ATOM      3  N   GLU A   2      19.773  58.698  -7.369  0.00  0.00    -0.298 N 
ATOM      4  H   GLU A   2      20.394  58.055  -7.900  0.00  0.00    +0.150 HD
ENDROOT
BRANCH   1   5
ATOM      5  CA  ASP A   1      21.201  58.204  -5.453  0.00  0.00    +0.156 C 
BRANCH   5   6
ATOM      6  N   ASP A   1      21.778  59.064  -4.425  0.00  0.00    -0.238 NA
ATOM      7  H   ASP A   1      21.540  58.886  -3.428  0.00  0.00    +0.142 HD
ENDBRANCH   5   6
BRANCH   5   8
ATOM      8  CB  ASP A   1      20.853  56.830  -4.844  0.00  0.00    +0.140 C 
BRANCH   8   9
ATOM      9  CG  ASP A   1      20.753  55.718  -5.900  0.00  0.00    +0.367 C 
ATOM     10  OD2 ASP A   1      20.414  54.577  -5.524  0.00  0.00    -0.246 OA
ATOM     11  OD1 ASP A   1      21.031  55.960  -7.094  0.00  0.00    -0.246 OA
ENDBRANCH   8   9
ENDBRANCH   5   8
ENDBRANCH   1   5
BRANCH   3  12
ATOM     12  CA  GLU A   2      18.711  59.414  -8.068  0.00  0.00    +0.137 C 
BRANCH  12  13
ATOM     13  C   GLU A   2      18.744  60.932  -7.824  0.00  0.00    +0.227 C 
ATOM     14  O   GLU A   2      17.794  61.532  -7.307  0.00  0.00    -0.286 OA
ENDBRANCH  12  13
BRANCH  12  15
ATOM     15  CB  GLU A   2      17.353  58.797  -7.760  0.00  0.00    +0.039 C 
BRANCH  15  16
ATOM     16  CG  GLU A   2      17.341  57.306  -8.159  0.00  0.00    +0.116 C 
BRANCH  16  17
ATOM     17  CD  GLU A   2      15.956  56.718  -8.210  0.00  0.00    +0.365 C 
ATOM     18  OE2 GLU A   2      15.802  55.536  -7.864  0.00  0.00    -0.246 OA
ATOM     19  OE1 GLU A   2      15.031  57.433  -8.617  0.00  0.00    -0.246 OA
ENDBRANCH  16  17
ENDBRANCH  15  16
ENDBRANCH  12  15
ENDBRANCH   3  12
TORSDOF 9
REMARK  Name = ../refined-set-2016/3hu3/3hu3_pocket.pdb
REMARK  238 active torsions:
REMARK  status: ('A' for Active; 'I' for Inactive)
REMARK    1  A    between atoms: _1  and  _3
REMARK    2  A    between atoms: _3  and  _4
REMARK    3  A    between atoms: _3  and  _6
REMARK    4  A    between atoms: _9  and  _11
REMARK    5  A    between atoms: _11  and  _12
REMARK    6  A    between atoms: _11  and  _14
REMARK    7  A    between atoms: _14  and  _15
REMARK    8  A    between atoms: _20  and  _21
REMARK    9  A    between atoms: _23  and  _25
REMARK   10  A    between atoms: _25  and  _26
REMARK   11  A    between atoms: _25  and  _28
REMARK   12  A    between atoms: _28  and  _29
REMARK   13  A    between atoms: _32  and  _34
REMARK   14  A    between atoms: _34  and  _35
REMARK   15  A    between atoms: _34  and  _37
REMARK   16  A    between atoms: _37  and  _38
REMARK   17  A    between atoms: _41  and  _43
REMARK   18  A    between atoms: _43  and  _44
REMARK   19  A    between atoms: _43  and  _46
REMARK   20  A    between atoms: _46  and  _47
REMARK   21  A    between atoms: _50  and  _52
REMARK   22  A    between atoms: _52  and  _53
REMARK   23  A    between atoms: _55  and  _57
REMARK   24  A    between atoms: _57  and  _58
REMARK   25  A    between atoms: _60  and  _62
REMARK   26  A    between atoms: _62  and  _63
REMARK   27  A    between atoms: _62  and  _65
REMARK   28  A    between atoms: _67  and  _69
REMARK   29  A    between atoms: _69  and  _70
REMARK   30  A    between atoms: _69  and  _72
REMARK   31  A    between atoms: _72  and  _73
REMARK   32  A    between atoms: _73  and  _74
REMARK   33  A    between atoms: _74  and  _75
REMARK   34  A    between atoms: _84  and  _86
REMARK   35  A    between atoms: _86  and  _87
REMARK   36  A    between atoms: _86  and  _89
REMARK   37  A    between atoms: _89  and  _90
REMARK   38  A    between atoms: _90  and  _91
REMARK   39  A    between atoms: _96  and  _98
REMARK   40  A    between atoms: _98  and  _99
REMARK   41  A    between atoms: _98  and  _101
REMARK   42  A    between atoms: _101  and  _102
REMARK   43  A    between atoms: _105  and  _107
REMARK   44  A    between atoms: _107  and  _108
REMARK   45  A    between atoms: _107  and  _110
REMARK   46  A    between atoms: _110  and  _111
REMARK   47  A    between atoms: _114  and  _116
REMARK   48  A    between atoms: _116  and  _117
REMARK   49  A    between atoms: _116  and  _119
REMARK   50  A    between atoms: _119  and  _120
REMARK   51  A    between atoms: _125  and  _126
REMARK   52  A    between atoms: _128  and  _130
REMARK   53  A    between atoms: _130  and  _131
REMARK   54  A    between atoms: _134  and  _135
REMARK   55  A    between atoms: _141  and  _142
REMARK   56  A    between atoms: _147  and  _149
REMARK   57  A    between atoms: _149  and  _150
REMARK   58  A    between atoms: _152  and  _154
REMARK   59  A    between atoms: _154  and  _155
REMARK   60  A    between atoms: _154  and  _157
REMARK   61  A    between atoms: _157  and  _158
REMARK   62  A    between atoms: _161  and  _163
REMARK   63  A    between atoms: _163  and  _164
REMARK   64  A    between atoms: _166  and  _168
REMARK   65  A    between atoms: _168  and  _169
REMARK   66  A    between atoms: _168  and  _171
REMARK   67  A    between atoms: _171  and  _172
REMARK   68  A    between atoms: _172  and  _173
REMARK   69  A    between atoms: _173  and  _174
REMARK   70  A    between atoms: _174  and  _175
REMARK   71  A    between atoms: _179  and  _181
REMARK   72  A    between atoms: _181  and  _182
REMARK   73  A    between atoms: _181  and  _184
REMARK   74  A    between atoms: _184  and  _185
REMARK   75  A    between atoms: _188  and  _190
REMARK   76  A    between atoms: _190  and  _191
REMARK   77  A    between atoms: _190  and  _193
REMARK   78  A    between atoms: _193  and  _194
REMARK   79  A    between atoms: _197  and  _199
REMARK   80  A    between atoms: _199  and  _200
REMARK   81  A    between atoms: _199  and  _202
REMARK   82  A    between atoms: _202  and  _203
REMARK   83  A    between atoms: _206  and  _208
REMARK   84  A    between atoms: _208  and  _209
REMARK   85  A    between atoms: _212  and  _214
REMARK   86  A    between atoms: _214  and  _215
REMARK   87  A    between atoms: _214  and  _217
REMARK   88  A    between atoms: _217  and  _218
REMARK   89  A    between atoms: _218  and  _219
REMARK   90  A    between atoms: _219  and  _220
REMARK   91  A    between atoms: _229  and  _231
REMARK   92  A    between atoms: _231  and  _232
REMARK   93  A    between atoms: _235  and  _237
REMARK   94  A    between atoms: _237  and  _238
REMARK   95  A    between atoms: _237  and  _240
REMARK   96  A    between atoms: _240  and  _241
REMARK   97  A    between atoms: _247  and  _249
REMARK   98  A    between atoms: _249  and  _250
REMARK   99  A    between atoms: _249  and  _252
REMARK  100  A    between atoms: _252  and  _253
REMARK  101  A    between atoms: _256  and  _258
REMARK  102  A    between atoms: _258  and  _259
REMARK  103  A    between atoms: _258  and  _261
REMARK  104  A    between atoms: _261  and  _262
REMARK  105  A    between atoms: _262  and  _263
REMARK  106  A    between atoms: _266  and  _268
REMARK  107  A    between atoms: _268  and  _269
REMARK  108  A    between atoms: _268  and  _271
REMARK  109  A    between atoms: _271  and  _272
REMARK  110  A    between atoms: _275  and  _277
REMARK  111  A    between atoms: _277  and  _278
REMARK  112  A    between atoms: _281  and  _283
REMARK  113  A    between atoms: _283  and  _284
REMARK  114  A    between atoms: _283  and  _286
REMARK  115  A    between atoms: _286  and  _287
REMARK  116  A    between atoms: _290  and  _292
REMARK  117  A    between atoms: _292  and  _293
REMARK  118  A    between atoms: _292  and  _295
REMARK  119  A    between atoms: _295  and  _296
REMARK  120  A    between atoms: _301  and  _303
REMARK  121  A    between atoms: _303  and  _304
REMARK  122  A    between atoms: _303  and  _306
REMARK  123  A    between atoms: _306  and  _307
REMARK  124  A    between atoms: _307  and  _308
REMARK  125  A    between atoms: _308  and  _309
REMARK  126  A    between atoms: _318  and  _320
REMARK  127  A    between atoms: _320  and  _321
REMARK  128  A    between atoms: _320  and  _323
REMARK  129  A    between atoms: _323  and  _324
REMARK  130  A    between atoms: _327  and  _329
REMARK  131  A    between atoms: _329  and  _330
REMARK  132  A    between atoms: _333  and  _334
REMARK  133  A    between atoms: _339  and  _341
REMARK  134  A    between atoms: _341  and  _342
REMARK  135  A    between atoms: _344  and  _346
REMARK  136  A    between atoms: _346  and  _347
REMARK  137  A    between atoms: _346  and  _349
REMARK  138  A    between atoms: _349  and  _350
REMARK  139  A    between atoms: _350  and  _351
REMARK  140  A    between atoms: _351  and  _352
REMARK  141  A    between atoms: _361  and  _363
REMARK  142  A    between atoms: _363  and  _364
REMARK  143  A    between atoms: _363  and  _366
REMARK  144  A    between atoms: _366  and  _367
REMARK  145  A    between atoms: _367  and  _368
REMARK  146  A    between atoms: _371  and  _373
REMARK  147  A    between atoms: _373  and  _374
REMARK  148  A    between atoms: _373  and  _376
REMARK  149  A    between atoms: _376  and  _377
REMARK  150  A    between atoms: _380  and  _382
REMARK  151  A    between atoms: _382  and  _383
REMARK  152  A    between atoms: _382  and  _385
REMARK  153  A    between atoms: _385  and  _386
REMARK  154  A    between atoms: _389  and  _391
REMARK  155  A    between atoms: _391  and  _392
REMARK  156  A    between atoms: _391  and  _394
REMARK  157  A    between atoms: _394  and  _395
REMARK  158  A    between atoms: _395  and  _396
REMARK  159  A    between atoms: _401  and  _403
REMARK  160  A    between atoms: _403  and  _404
REMARK  161  A    between atoms: _403  and  _406
REMARK  162  A    between atoms: _406  and  _407
REMARK  163  A    between atoms: _410  and  _412
REMARK  164  A    between atoms: _412  and  _413
REMARK  165  A    between atoms: _412  and  _415
REMARK  166  A    between atoms: _415  and  _416
REMARK  167  A    between atoms: _421  and  _423
REMARK  168  A    between atoms: _423  and  _424
REMARK  169  A    between atoms: _423  and  _426
REMARK  170  A    between atoms: _429  and  _431
REMARK  171  A    between atoms: _431  and  _432
REMARK  172  A    between atoms: _434  and  _436
REMARK  173  A    between atoms: _436  and  _437
REMARK  174  A    between atoms: _440  and  _442
REMARK  175  A    between atoms: _442  and  _443
REMARK  176  A    between atoms: _442  and  _445
REMARK  177  A    between atoms: _445  and  _446
REMARK  178  A    between atoms: _449  and  _451
REMARK  179  A    between atoms: _451  and  _452
REMARK  180  A    between atoms: _451  and  _454
REMARK  181  A    between atoms: _454  and  _455
REMARK  182  A    between atoms: _458  and  _460
REMARK  183  A    between atoms: _460  and  _461
REMARK  184  A    between atoms: _464  and  _466
REMARK  185  A    between atoms: _466  and  _467
REMARK  186  A    between atoms: _470  and  _472
REMARK  187  A    between atoms: _472  and  _473
REMARK  188  A    between atoms: _472  and  _475
REMARK  189  A    between atoms: _475  and  _476
REMARK  190  A    between atoms: _478  and  _480
REMARK  191  A    between atoms: _480  and  _481
REMARK  192  A    between atoms: _480  and  _483
REMARK  193  A    between atoms: _483  and  _484
REMARK  194  A    between atoms: _484  and  _485
REMARK  195  A    between atoms: _485  and  _486
REMARK  196  A    between atoms: _486  and  _487
REMARK  197  A    between atoms: _491  and  _493
REMARK  198  A    between atoms: _493  and  _494
REMARK  199  A    between atoms: _493  and  _496
REMARK  200  A    between atoms: _496  and  _497
REMARK  201  A    between atoms: _497  and  _498
REMARK  202  A    between atoms: _498  and  _499
REMARK  203  A    between atoms: _508  and  _510
REMARK  204  A    between atoms: _510  and  _511
REMARK  205  A    between atoms: _510  and  _513
REMARK  206  A    between atoms: _513  and  _514
REMARK  207  A    between atoms: _517  and  _519
REMARK  208  A    between atoms: _519  and  _520
REMARK  209  A    between atoms: _519  and  _522
REMARK  210  A    between atoms: _522  and  _523
REMARK  211  A    between atoms: _523  and  _524
REMARK  212  A    between atoms: _530  and  _531
REMARK  213  A    between atoms: _536  and  _538
REMARK  214  A    between atoms: _538  and  _539
REMARK  215  A    between atoms: _542  and  _544
REMARK  216  A    between atoms: _544  and  _545
REMARK  217  A    between atoms: _544  and  _547
REMARK  218  A    between atoms: _547  and  _548
REMARK  219  A    between atoms: _548  and  _549
REMARK  220  A    between atoms: _549  and  _550
REMARK  221  A    between atoms: _559  and  _561
REMARK  222  A    between atoms: _561  and  _562
REMARK  223  A    between atoms: _561  and  _564
REMARK  224  A    between atoms: _564  and  _565
REMARK  225  A    between atoms: _565  and  _566
REMARK  226  A    between atoms: _566  and  _567
REMARK  227  A    between atoms: _576  and  _578
REMARK  228  A    between atoms: _578  and  _579
REMARK  229  A    between atoms: _578  and  _581
REMARK  230  A    between atoms: _581  and  _582
REMARK  231  A    between atoms: _588  and  _590
REMARK  232  A    between atoms: _590  and  _591
REMARK  233  A    between atoms: _593  and  _595
REMARK  234  A    between atoms: _595  and  _596
REMARK  235  A    between atoms: _595  and  _598
REMARK  236  A    between atoms: _598  and  _599
REMARK  237  A    between atoms: _599  and  _600
REMARK  238  A    between atoms: _600  and  _601
REMARK                            x       y       z     vdW  Elec       q    Type
REMARK                         _______ _______ _______ _____ _____    ______ ____
ROOT
ATOM      1  CA  ASP A   1      17.527  64.122 -10.632  0.00  0.00    +0.144 C 
ENDROOT
BRANCH   1   2
ATOM      2  N   ASP A   1      18.564  63.412  -9.855  0.00  0.00    -0.239 NA
ATOM      3  H   ASP A   1      18.971  62.546 -10.262  0.00  0.00    +0.142 HD
ENDBRANCH   1   2
BRANCH   1   4
ATOM      4  C   ASP A   1      16.249  64.359  -9.861  0.00  0.00    +0.225 C 
ATOM      5  O   ASP A   1      15.498  65.310 -10.150  0.00  0.00    -0.287 OA
ENDBRANCH   1   4
BRANCH   1   6
ATOM      6  CB  ASP A   1      17.189  63.365 -11.928  0.00  0.00    +0.139 C 
BRANCH   6   7
ATOM      7  CG  ASP A   1      17.010  61.873 -11.704  0.00  0.00    +0.367 C 
ATOM      8  OD2 ASP A   1      18.030  61.211 -11.467  0.00  0.00    -0.246 OA
ATOM      9  OD1 ASP A   1      15.865  61.360 -11.783  0.00  0.00    -0.246 OA
ENDBRANCH   6   7
ENDBRANCH   1   6
TORSDOF 4
REMARK  Name = ../refined-set-2016/3hu3/3hu3_pocket.pdb
REMARK  238 active torsions:
REMARK  status: ('A' for Active; 'I' for Inactive)
REMARK    1  A    between atoms: _1  and  _3
REMARK    2  A    between atoms: _3  and  _4
REMARK    3  A    between atoms: _3  and  _6
REMARK    4  A    between atoms: _9  and  _11
REMARK    5  A    between atoms: _11  and  _12
REMARK    6  A    between atoms: _11  and  _14
REMARK    7  A    between atoms: _14  and  _15
REMARK    8  A    between atoms: _20  and  _21
REMARK    9  A    between atoms: _23  and  _25
REMARK   10  A    between atoms: _25  and  _26
REMARK   11  A    between atoms: _25  and  _28
REMARK   12  A    between atoms: _28  and  _29
REMARK   13  A    between atoms: _32  and  _34
REMARK   14  A    between atoms: _34  and  _35
REMARK   15  A    between atoms: _34  and  _37
REMARK   16  A    between atoms: _37  and  _38
REMARK   17  A    between atoms: _41  and  _43
REMARK   18  A    between atoms: _43  and  _44
REMARK   19  A    between atoms: _43  and  _46
REMARK   20  A    between atoms: _46  and  _47
REMARK   21  A    between atoms: _50  and  _52
REMARK   22  A    between atoms: _52  and  _53
REMARK   23  A    between atoms: _55  and  _57
REMARK   24  A    between atoms: _57  and  _58
REMARK   25  A    between atoms: _60  and  _62
REMARK   26  A    between atoms: _62  and  _63
REMARK   27  A    between atoms: _62  and  _65
REMARK   28  A    between atoms: _67  and  _69
REMARK   29  A    between atoms: _69  and  _70
REMARK   30  A    between atoms: _69  and  _72
REMARK   31  A    between atoms: _72  and  _73
REMARK   32  A    between atoms: _73  and  _74
REMARK   33  A    between atoms: _74  and  _75
REMARK   34  A    between atoms: _84  and  _86
REMARK   35  A    between atoms: _86  and  _87
REMARK   36  A    between atoms: _86  and  _89
REMARK   37  A    between atoms: _89  and  _90
REMARK   38  A    between atoms: _90  and  _91
REMARK   39  A    between atoms: _96  and  _98
REMARK   40  A    between atoms: _98  and  _99
REMARK   41  A    between atoms: _98  and  _101
REMARK   42  A    between atoms: _101  and  _102
REMARK   43  A    between atoms: _105  and  _107
REMARK   44  A    between atoms: _107  and  _108
REMARK   45  A    between atoms: _107  and  _110
REMARK   46  A    between atoms: _110  and  _111
REMARK   47  A    between atoms: _114  and  _116
REMARK   48  A    between atoms: _116  and  _117
REMARK   49  A    between atoms: _116  and  _119
REMARK   50  A    between atoms: _119  and  _120
REMARK   51  A    between atoms: _125  and  _126
REMARK   52  A    between atoms: _128  and  _130
REMARK   53  A    between atoms: _130  and  _131
REMARK   54  A    between atoms: _134  and  _135
REMARK   55  A    between atoms: _141  and  _142
REMARK   56  A    between atoms: _147  and  _149
REMARK   57  A    between atoms: _149  and  _150
REMARK   58  A    between atoms: _152  and  _154
REMARK   59  A    between atoms: _154  and  _155
REMARK   60  A    between atoms: _154  and  _157
REMARK   61  A    between atoms: _157  and  _158
REMARK   62  A    between atoms: _161  and  _163
REMARK   63  A    between atoms: _163  and  _164
REMARK   64  A    between atoms: _166  and  _168
REMARK   65  A    between atoms: _168  and  _169
REMARK   66  A    between atoms: _168  and  _171
REMARK   67  A    between atoms: _171  and  _172
REMARK   68  A    between atoms: _172  and  _173
REMARK   69  A    between atoms: _173  and  _174
REMARK   70  A    between atoms: _174  and  _175
REMARK   71  A    between atoms: _179  and  _181
REMARK   72  A    between atoms: _181  and  _182
REMARK   73  A    between atoms: _181  and  _184
REMARK   74  A    between atoms: _184  and  _185
REMARK   75  A    between atoms: _188  and  _190
REMARK   76  A    between atoms: _190  and  _191
REMARK   77  A    between atoms: _190  and  _193
REMARK   78  A    between atoms: _193  and  _194
REMARK   79  A    between atoms: _197  and  _199
REMARK   80  A    between atoms: _199  and  _200
REMARK   81  A    between atoms: _199  and  _202
REMARK   82  A    between atoms: _202  and  _203
REMARK   83  A    between atoms: _206  and  _208
REMARK   84  A    between atoms: _208  and  _209
REMARK   85  A    between atoms: _212  and  _214
REMARK   86  A    between atoms: _214  and  _215
REMARK   87  A    between atoms: _214  and  _217
REMARK   88  A    between atoms: _217  and  _218
REMARK   89  A    between atoms: _218  and  _219
REMARK   90  A    between atoms: _219  and  _220
REMARK   91  A    between atoms: _229  and  _231
REMARK   92  A    between atoms: _231  and  _232
REMARK   93  A    between atoms: _235  and  _237
REMARK   94  A    between atoms: _237  and  _238
REMARK   95  A    between atoms: _237  and  _240
REMARK   96  A    between atoms: _240  and  _241
REMARK   97  A    between atoms: _247  and  _249
REMARK   98  A    between atoms: _249  and  _250
REMARK   99  A    between atoms: _249  and  _252
REMARK  100  A    between atoms: _252  and  _253
REMARK  101  A    between atoms: _256  and  _258
REMARK  102  A    between atoms: _258  and  _259
REMARK  103  A    between atoms: _258  and  _261
REMARK  104  A    between atoms: _261  and  _262
REMARK  105  A    between atoms: _262  and  _263
REMARK  106  A    between atoms: _266  and  _268
REMARK  107  A    between atoms: _268  and  _269
REMARK  108  A    between atoms: _268  and  _271
REMARK  109  A    between atoms: _271  and  _272
REMARK  110  A    between atoms: _275  and  _277
REMARK  111  A    between atoms: _277  and  _278
REMARK  112  A    between atoms: _281  and  _283
REMARK  113  A    between atoms: _283  and  _284
REMARK  114  A    between atoms: _283  and  _286
REMARK  115  A    between atoms: _286  and  _287
REMARK  116  A    between atoms: _290  and  _292
REMARK  117  A    between atoms: _292  and  _293
REMARK  118  A    between atoms: _292  and  _295
REMARK  119  A    between atoms: _295  and  _296
REMARK  120  A    between atoms: _301  and  _303
REMARK  121  A    between atoms: _303  and  _304
REMARK  122  A    between atoms: _303  and  _306
REMARK  123  A    between atoms: _306  and  _307
REMARK  124  A    between atoms: _307  and  _308
REMARK  125  A    between atoms: _308  and  _309
REMARK  126  A    between atoms: _318  and  _320
REMARK  127  A    between atoms: _320  and  _321
REMARK  128  A    between atoms: _320  and  _323
REMARK  129  A    between atoms: _323  and  _324
REMARK  130  A    between atoms: _327  and  _329
REMARK  131  A    between atoms: _329  and  _330
REMARK  132  A    between atoms: _333  and  _334
REMARK  133  A    between atoms: _339  and  _341
REMARK  134  A    between atoms: _341  and  _342
REMARK  135  A    between atoms: _344  and  _346
REMARK  136  A    between atoms: _346  and  _347
REMARK  137  A    between atoms: _346  and  _349
REMARK  138  A    between atoms: _349  and  _350
REMARK  139  A    between atoms: _350  and  _351
REMARK  140  A    between atoms: _351  and  _352
REMARK  141  A    between atoms: _361  and  _363
REMARK  142  A    between atoms: _363  and  _364
REMARK  143  A    between atoms: _363  and  _366
REMARK  144  A    between atoms: _366  and  _367
REMARK  145  A    between atoms: _367  and  _368
REMARK  146  A    between atoms: _371  and  _373
REMARK  147  A    between atoms: _373  and  _374
REMARK  148  A    between atoms: _373  and  _376
REMARK  149  A    between atoms: _376  and  _377
REMARK  150  A    between atoms: _380  and  _382
REMARK  151  A    between atoms: _382  and  _383
REMARK  152  A    between atoms: _382  and  _385
REMARK  153  A    between atoms: _385  and  _386
REMARK  154  A    between atoms: _389  and  _391
REMARK  155  A    between atoms: _391  and  _392
REMARK  156  A    between atoms: _391  and  _394
REMARK  157  A    between atoms: _394  and  _395
REMARK  158  A    between atoms: _395  and  _396
REMARK  159  A    between atoms: _401  and  _403
REMARK  160  A    between atoms: _403  and  _404
REMARK  161  A    between atoms: _403  and  _406
REMARK  162  A    between atoms: _406  and  _407
REMARK  163  A    between atoms: _410  and  _412
REMARK  164  A    between atoms: _412  and  _413
REMARK  165  A    between atoms: _412  and  _415
REMARK  166  A    between atoms: _415  and  _416
REMARK  167  A    between atoms: _421  and  _423
REMARK  168  A    between atoms: _423  and  _424
REMARK  169  A    between atoms: _423  and  _426
REMARK  170  A    between atoms: _429  and  _431
REMARK  171  A    between atoms: _431  and  _432
REMARK  172  A    between atoms: _434  and  _436
REMARK  173  A    between atoms: _436  and  _437
REMARK  174  A    between atoms: _440  and  _442
REMARK  175  A    between atoms: _442  and  _443
REMARK  176  A    between atoms: _442  and  _445
REMARK  177  A    between atoms: _445  and  _446
REMARK  178  A    between atoms: _449  and  _451
REMARK  179  A    between atoms: _451  and  _452
REMARK  180  A    between atoms: _451  and  _454
REMARK  181  A    between atoms: _454  and  _455
REMARK  182  A    between atoms: _458  and  _460
REMARK  183  A    between atoms: _460  and  _461
REMARK  184  A    between atoms: _464  and  _466
REMARK  185  A    between atoms: _466  and  _467
REMARK  186  A    between atoms: _470  and  _472
REMARK  187  A    between atoms: _472  and  _473
REMARK  188  A    between atoms: _472  and  _475
REMARK  189  A    between atoms: _475  and  _476
REMARK  190  A    between atoms: _478  and  _480
REMARK  191  A    between atoms: _480  and  _481
REMARK  192  A    between atoms: _480  and  _483
REMARK  193  A    between atoms: _483  and  _484
REMARK  194  A    between atoms: _484  and  _485
REMARK  195  A    between atoms: _485  and  _486
REMARK  196  A    between atoms: _486  and  _487
REMARK  197  A    between atoms: _491  and  _493
REMARK  198  A    between atoms: _493  and  _494
REMARK  199  A    between atoms: _493  and  _496
REMARK  200  A    between atoms: _496  and  _497
REMARK  201  A    between atoms: _497  and  _498
REMARK  202  A    between atoms: _498  and  _499
REMARK  203  A    between atoms: _508  and  _510
REMARK  204  A    between atoms: _510  and  _511
REMARK  205  A    between atoms: _510  and  _513
REMARK  206  A    between atoms: _513  and  _514
REMARK  207  A    between atoms: _517  and  _519
REMARK  208  A    between atoms: _519  and  _520
REMARK  209  A    between atoms: _519  and  _522
REMARK  210  A    between atoms: _522  and  _523
REMARK  211  A    between atoms: _523  and  _524
REMARK  212  A    between atoms: _530  and  _531
REMARK  213  A    between atoms: _536  and  _538
REMARK  214  A    between atoms: _538  and  _539
REMARK  215  A    between atoms: _542  and  _544
REMARK  216  A    between atoms: _544  and  _545
REMARK  217  A    between atoms: _544  and  _547
REMARK  218  A    between atoms: _547  and  _548
REMARK  219  A    between atoms: _548  and  _549
REMARK  220  A    between atoms: _549  and  _550
REMARK  221  A    between atoms: _559  and  _561
REMARK  222  A    between atoms: _561  and  _562
REMARK  223  A    between atoms: _561  and  _564
REMARK  224  A    between atoms: _564  and  _565
REMARK  225  A    between atoms: _565  and  _566
REMARK  226  A    between atoms: _566  and  _567
REMARK  227  A    between atoms: _576  and  _578
REMARK  228  A    between atoms: _578  and  _579
REMARK  229  A    between atoms: _578  and  _581
REMARK  230  A    between atoms: _581  and  _582
REMARK  231  A    between atoms: _588  and  _590
REMARK  232  A    between atoms: _590  and  _591
REMARK  233  A    between atoms: _593  and  _595
REMARK  234  A    between atoms: _595  and  _596
REMARK  235  A    between atoms: _595  and  _598
REMARK  236  A    between atoms: _598  and  _599
REMARK  237  A    between atoms: _599  and  _600
REMARK  238  A    between atoms: _600  and  _601
REMARK                            x       y       z     vdW  Elec       q    Type
REMARK                         _______ _______ _______ _____ _____    ______ ____
ROOT
ATOM      1  CA  ASN A   3      19.588  57.862 -15.305  0.00  0.00    +0.158 C 
ENDROOT
BRANCH   1   2
ATOM      2  C   ASN A   3      19.080  58.920 -16.295  0.00  0.00    +0.241 C 
ATOM      3  N   ARG A   4      18.997  60.169 -15.820  0.00  0.00    -0.298 N 
ATOM      4  H   ARG A   4      19.210  60.312 -14.812  0.00  0.00    +0.150 HD
ATOM      5  O   ASN A   3      18.787  58.603 -17.442  0.00  0.00    -0.273 OA
BRANCH   3   6
ATOM      6  CA  ARG A   4      18.630  61.354 -16.606  0.00  0.00    +0.137 C 
BRANCH   6   7
ATOM      7  C   ARG A   4      19.613  62.491 -16.316  0.00  0.00    +0.227 C 
ATOM      8  O   ARG A   4      19.253  63.459 -15.636  0.00  0.00    -0.286 OA
ENDBRANCH   6   7
BRANCH   6   9
ATOM      9  CB  ARG A   4      17.222  61.841 -16.206  0.00  0.00    +0.031 C 
BRANCH   9  10
ATOM     10  CG  ARG A   4      16.089  60.817 -16.307  0.00  0.00    +0.045 C 
BRANCH  10  11
ATOM     11  CD  ARG A   4      15.054  61.064 -15.207  0.00  0.00    +0.174 C 
BRANCH  11  12
ATOM     12  NE  ARG A   4      14.438  62.385 -15.347  0.00  0.00    -0.265 N 
ATOM     13  CZ  ARG A   4      13.893  63.093 -14.360  0.00  0.00    +0.342 C 
ATOM     14  NH2 ARG A   4      13.862  62.624 -13.118  0.00  0.00    -0.292 N 
ATOM     15 HH21 ARG A   4      13.432  63.190 -12.359  0.00  0.00    +0.255 HD
ATOM     16 HH22 ARG A   4      14.267  61.690 -12.904  0.00  0.00    +0.255 HD
ATOM     17  NH1 ARG A   4      13.361  64.278 -14.621  0.00  0.00    -0.292 N 
ATOM     18 HH11 ARG A   4      12.934  64.836 -13.855  0.00  0.00    +0.255 HD
ATOM     19 HH12 ARG A   4      13.371  64.650 -15.592  0.00  0.00    +0.255 HD
ATOM     20  HE  ARG A   4      14.425  62.806 -16.298  0.00  0.00    +0.259 HD
ENDBRANCH  11  12
ENDBRANCH  10  11
ENDBRANCH   9  10
ENDBRANCH   6   9
ENDBRANCH   3   6
ENDBRANCH   1   2
BRANCH   1  22
ATOM     21  C   THR A   2      21.089  58.615 -13.534  0.00  0.00    +0.243 C 
ATOM     22  N   ASN A   3      19.846  58.413 -13.976  0.00  0.00    -0.297 N 
ATOM     23  H   ASN A   3      19.043  58.653 -13.361  0.00  0.00    +0.150 HD
ATOM     24  O   THR A   2      22.096  58.212 -14.120  0.00  0.00    -0.273 OA
BRANCH  21  25
ATOM     25  CA  THR A   2      21.220  59.378 -12.228  0.00  0.00    +0.176 C 
BRANCH  25  28
ATOM     26  C   ALA A   1      22.549  59.146 -10.219  0.00  0.00    +0.238 C 
ATOM     27  O   ALA A   1      21.726  59.728  -9.531  0.00  0.00    -0.274 OA
ATOM     28  N   THR A   2      22.417  58.971 -11.527  0.00  0.00    -0.295 N 
ATOM     29  H   THR A   2      23.193  58.530 -12.061  0.00  0.00    +0.150 HD
BRANCH  26  30
ATOM     30  CA  ALA A   1      23.825  58.616  -9.588  0.00  0.00    +0.145 C 
ATOM     31  CB  ALA A   1      23.636  57.168  -9.147  0.00  0.00    +0.028 C 
BRANCH  30  32
ATOM     32  N   ALA A   1      24.184  59.466  -8.462  0.00  0.00    -0.238 NA
ATOM     33  H   ALA A   1      23.432  59.843  -7.850  0.00  0.00    +0.142 HD
ENDBRANCH  30  32
ENDBRANCH  26  30
ENDBRANCH  25  28
BRANCH  25  34
ATOM     34  CB  THR A   2      21.224  60.901 -12.535  0.00  0.00    +0.137 C 
ATOM     35  CG2 THR A   2      22.341  61.224 -13.546  0.00  0.00    +0.034 C 
BRANCH  34  36
ATOM     36  OG1 THR A   2      19.956  61.273 -13.083  0.00  0.00    -0.382 OA
ATOM     37  HG1 THR A   2      19.242  61.067 -12.429  0.00  0.00    +0.210 HD
ENDBRANCH  34  36
ENDBRANCH  25  34
ENDBRANCH  21  25
ENDBRANCH   1  22
BRANCH   1  38
ATOM     38  CB  ASN A   3      18.702  56.583 -15.261  0.00  0.00    +0.114 C 
BRANCH  38  39
ATOM     39  CG  ASN A   3      17.286  56.829 -14.731  0.00  0.00    +0.222 C 
ATOM     40  ND2 ASN A   3      16.724  55.819 -14.067  0.00  0.00    -0.329 N 
ATOM     41 HD21 ASN A   3      15.757  55.915 -13.696  0.00  0.00    +0.145 HD
ATOM     42 HD22 ASN A   3      17.252  54.935 -13.920  0.00  0.00    +0.145 HD
ATOM     43  OD1 ASN A   3      16.701  57.890 -14.929  0.00  0.00    -0.275 OA
ENDBRANCH  38  39
ENDBRANCH   1  38
TORSDOF 16
REMARK  Name = ../refined-set-2016/3hu3/3hu3_pocket.pdb
REMARK  238 active torsions:
REMARK  status: ('A' for Active; 'I' for Inactive)
REMARK    1  A    between atoms: _1  and  _3
REMARK    2  A    between atoms: _3  and  _4
REMARK    3  A    between atoms: _3  and  _6
REMARK    4  A    between atoms: _9  and  _11
REMARK    5  A    between atoms: _11  and  _12
REMARK    6  A    between atoms: _11  and  _14
REMARK    7  A    between atoms: _14  and  _15
REMARK    8  A    between atoms: _20  and  _21
REMARK    9  A    between atoms: _23  and  _25
REMARK   10  A    between atoms: _25  and  _26
REMARK   11  A    between atoms: _25  and  _28
REMARK   12  A    between atoms: _28  and  _29
REMARK   13  A    between atoms: _32  and  _34
REMARK   14  A    between atoms: _34  and  _35
REMARK   15  A    between atoms: _34  and  _37
REMARK   16  A    between atoms: _37  and  _38
REMARK   17  A    between atoms: _41  and  _43
REMARK   18  A    between atoms: _43  and  _44
REMARK   19  A    between atoms: _43  and  _46
REMARK   20  A    between atoms: _46  and  _47
REMARK   21  A    between atoms: _50  and  _52
REMARK   22  A    between atoms: _52  and  _53
REMARK   23  A    between atoms: _55  and  _57
REMARK   24  A    between atoms: _57  and  _58
REMARK   25  A    between atoms: _60  and  _62
REMARK   26  A    between atoms: _62  and  _63
REMARK   27  A    between atoms: _62  and  _65
REMARK   28  A    between atoms: _67  and  _69
REMARK   29  A    between atoms: _69  and  _70
REMARK   30  A    between atoms: _69  and  _72
REMARK   31  A    between atoms: _72  and  _73
REMARK   32  A    between atoms: _73  and  _74
REMARK   33  A    between atoms: _74  and  _75
REMARK   34  A    between atoms: _84  and  _86
REMARK   35  A    between atoms: _86  and  _87
REMARK   36  A    between atoms: _86  and  _89
REMARK   37  A    between atoms: _89  and  _90
REMARK   38  A    between atoms: _90  and  _91
REMARK   39  A    between atoms: _96  and  _98
REMARK   40  A    between atoms: _98  and  _99
REMARK   41  A    between atoms: _98  and  _101
REMARK   42  A    between atoms: _101  and  _102
REMARK   43  A    between atoms: _105  and  _107
REMARK   44  A    between atoms: _107  and  _108
REMARK   45  A    between atoms: _107  and  _110
REMARK   46  A    between atoms: _110  and  _111
REMARK   47  A    between atoms: _114  and  _116
REMARK   48  A    between atoms: _116  and  _117
REMARK   49  A    between atoms: _116  and  _119
REMARK   50  A    between atoms: _119  and  _120
REMARK   51  A    between atoms: _125  and  _126
REMARK   52  A    between atoms: _128  and  _130
REMARK   53  A    between atoms: _130  and  _131
REMARK   54  A    between atoms: _134  and  _135
REMARK   55  A    between atoms: _141  and  _142
REMARK   56  A    between atoms: _147  and  _149
REMARK   57  A    between atoms: _149  and  _150
REMARK   58  A    between atoms: _152  and  _154
REMARK   59  A    between atoms: _154  and  _155
REMARK   60  A    between atoms: _154  and  _157
REMARK   61  A    between atoms: _157  and  _158
REMARK   62  A    between atoms: _161  and  _163
REMARK   63  A    between atoms: _163  and  _164
REMARK   64  A    between atoms: _166  and  _168
REMARK   65  A    between atoms: _168  and  _169
REMARK   66  A    between atoms: _168  and  _171
REMARK   67  A    between atoms: _171  and  _172
REMARK   68  A    between atoms: _172  and  _173
REMARK   69  A    between atoms: _173  and  _174
REMARK   70  A    between atoms: _174  and  _175
REMARK   71  A    between atoms: _179  and  _181
REMARK   72  A    between atoms: _181  and  _182
REMARK   73  A    between atoms: _181  and  _184
REMARK   74  A    between atoms: _184  and  _185
REMARK   75  A    between atoms: _188  and  _190
REMARK   76  A    between atoms: _190  and  _191
REMARK   77  A    between atoms: _190  and  _193
REMARK   78  A    between atoms: _193  and  _194
REMARK   79  A    between atoms: _197  and  _199
REMARK   80  A    between atoms: _199  and  _200
REMARK   81  A    between atoms: _199  and  _202
REMARK   82  A    between atoms: _202  and  _203
REMARK   83  A    between atoms: _206  and  _208
REMARK   84  A    between atoms: _208  and  _209
REMARK   85  A    between atoms: _212  and  _214
REMARK   86  A    between atoms: _214  and  _215
REMARK   87  A    between atoms: _214  and  _217
REMARK   88  A    between atoms: _217  and  _218
REMARK   89  A    between atoms: _218  and  _219
REMARK   90  A    between atoms: _219  and  _220
REMARK   91  A    between atoms: _229  and  _231
REMARK   92  A    between atoms: _231  and  _232
REMARK   93  A    between atoms: _235  and  _237
REMARK   94  A    between atoms: _237  and  _238
REMARK   95  A    between atoms: _237  and  _240
REMARK   96  A    between atoms: _240  and  _241
REMARK   97  A    between atoms: _247  and  _249
REMARK   98  A    between atoms: _249  and  _250
REMARK   99  A    between atoms: _249  and  _252
REMARK  100  A    between atoms: _252  and  _253
REMARK  101  A    between atoms: _256  and  _258
REMARK  102  A    between atoms: _258  and  _259
REMARK  103  A    between atoms: _258  and  _261
REMARK  104  A    between atoms: _261  and  _262
REMARK  105  A    between atoms: _262  and  _263
REMARK  106  A    between atoms: _266  and  _268
REMARK  107  A    between atoms: _268  and  _269
REMARK  108  A    between atoms: _268  and  _271
REMARK  109  A    between atoms: _271  and  _272
REMARK  110  A    between atoms: _275  and  _277
REMARK  111  A    between atoms: _277  and  _278
REMARK  112  A    between atoms: _281  and  _283
REMARK  113  A    between atoms: _283  and  _284
REMARK  114  A    between atoms: _283  and  _286
REMARK  115  A    between atoms: _286  and  _287
REMARK  116  A    between atoms: _290  and  _292
REMARK  117  A    between atoms: _292  and  _293
REMARK  118  A    between atoms: _292  and  _295
REMARK  119  A    between atoms: _295  and  _296
REMARK  120  A    between atoms: _301  and  _303
REMARK  121  A    between atoms: _303  and  _304
REMARK  122  A    between atoms: _303  and  _306
REMARK  123  A    between atoms: _306  and  _307
REMARK  124  A    between atoms: _307  and  _308
REMARK  125  A    between atoms: _308  and  _309
REMARK  126  A    between atoms: _318  and  _320
REMARK  127  A    between atoms: _320  and  _321
REMARK  128  A    between atoms: _320  and  _323
REMARK  129  A    between atoms: _323  and  _324
REMARK  130  A    between atoms: _327  and  _329
REMARK  131  A    between atoms: _329  and  _330
REMARK  132  A    between atoms: _333  and  _334
REMARK  133  A    between atoms: _339  and  _341
REMARK  134  A    between atoms: _341  and  _342
REMARK  135  A    between atoms: _344  and  _346
REMARK  136  A    between atoms: _346  and  _347
REMARK  137  A    between atoms: _346  and  _349
REMARK  138  A    between atoms: _349  and  _350
REMARK  139  A    between atoms: _350  and  _351
REMARK  140  A    between atoms: _351  and  _352
REMARK  141  A    between atoms: _361  and  _363
REMARK  142  A    between atoms: _363  and  _364
REMARK  143  A    between atoms: _363  and  _366
REMARK  144  A    between atoms: _366  and  _367
REMARK  145  A    between atoms: _367  and  _368
REMARK  146  A    between atoms: _371  and  _373
REMARK  147  A    between atoms: _373  and  _374
REMARK  148  A    between atoms: _373  and  _376
REMARK  149  A    between atoms: _376  and  _377
REMARK  150  A    between atoms: _380  and  _382
REMARK  151  A    between atoms: _382  and  _383
REMARK  152  A    between atoms: _382  and  _385
REMARK  153  A    between atoms: _385  and  _386
REMARK  154  A    between atoms: _389  and  _391
REMARK  155  A    between atoms: _391  and  _392
REMARK  156  A    between atoms: _391  and  _394
REMARK  157  A    between atoms: _394  and  _395
REMARK  158  A    between atoms: _395  and  _396
REMARK  159  A    between atoms: _401  and  _403
REMARK  160  A    between atoms: _403  and  _404
REMARK  161  A    between atoms: _403  and  _406
REMARK  162  A    between atoms: _406  and  _407
REMARK  163  A    between atoms: _410  and  _412
REMARK  164  A    between atoms: _412  and  _413
REMARK  165  A    between atoms: _412  and  _415
REMARK  166  A    between atoms: _415  and  _416
REMARK  167  A    between atoms: _421  and  _423
REMARK  168  A    between atoms: _423  and  _424
REMARK  169  A    between atoms: _423  and  _426
REMARK  170  A    between atoms: _429  and  _431
REMARK  171  A    between atoms: _431  and  _432
REMARK  172  A    between atoms: _434  and  _436
REMARK  173  A    between atoms: _436  and  _437
REMARK  174  A    between atoms: _440  and  _442
REMARK  175  A    between atoms: _442  and  _443
REMARK  176  A    between atoms: _442  and  _445
REMARK  177  A    between atoms: _445  and  _446
REMARK  178  A    between atoms: _449  and  _451
REMARK  179  A    between atoms: _451  and  _452
REMARK  180  A    between atoms: _451  and  _454
REMARK  181  A    between atoms: _454  and  _455
REMARK  182  A    between atoms: _458  and  _460
REMARK  183  A    between atoms: _460  and  _461
REMARK  184  A    between atoms: _464  and  _466
REMARK  185  A    between atoms: _466  and  _467
REMARK  186  A    between atoms: _470  and  _472
REMARK  187  A    between atoms: _472  and  _473
REMARK  188  A    between atoms: _472  and  _475
REMARK  189  A    between atoms: _475  and  _476
REMARK  190  A    between atoms: _478  and  _480
REMARK  191  A    between atoms: _480  and  _481
REMARK  192  A    between atoms: _480  and  _483
REMARK  193  A    between atoms: _483  and  _484
REMARK  194  A    between atoms: _484  and  _485
REMARK  195  A    between atoms: _485  and  _486
REMARK  196  A    between atoms: _486  and  _487
REMARK  197  A    between atoms: _491  and  _493
REMARK  198  A    between atoms: _493  and  _494
REMARK  199  A    between atoms: _493  and  _496
REMARK  200  A    between atoms: _496  and  _497
REMARK  201  A    between atoms: _497  and  _498
REMARK  202  A    between atoms: _498  and  _499
REMARK  203  A    between atoms: _508  and  _510
REMARK  204  A    between atoms: _510  and  _511
REMARK  205  A    between atoms: _510  and  _513
REMARK  206  A    between atoms: _513  and  _514
REMARK  207  A    between atoms: _517  and  _519
REMARK  208  A    between atoms: _519  and  _520
REMARK  209  A    between atoms: _519  and  _522
REMARK  210  A    between atoms: _522  and  _523
REMARK  211  A    between atoms: _523  and  _524
REMARK  212  A    between atoms: _530  and  _531
REMARK  213  A    between atoms: _536  and  _538
REMARK  214  A    between atoms: _538  and  _539
REMARK  215  A    between atoms: _542  and  _544
REMARK  216  A    between atoms: _544  and  _545
REMARK  217  A    between atoms: _544  and  _547
REMARK  218  A    between atoms: _547  and  _548
REMARK  219  A    between atoms: _548  and  _549
REMARK  220  A    between atoms: _549  and  _550
REMARK  221  A    between atoms: _559  and  _561
REMARK  222  A    between atoms: _561  and  _562
REMARK  223  A    between atoms: _561  and  _564
REMARK  224  A    between atoms: _564  and  _565
REMARK  225  A    between atoms: _565  and  _566
REMARK  226  A    between atoms: _566  and  _567
REMARK  227  A    between atoms: _576  and  _578
REMARK  228  A    between atoms: _578  and  _579
REMARK  229  A    between atoms: _578  and  _581
REMARK  230  A    between atoms: _581  and  _582
REMARK  231  A    between atoms: _588  and  _590
REMARK  232  A    between atoms: _590  and  _591
REMARK  233  A    between atoms: _593  and  _595
REMARK  234  A    between atoms: _595  and  _596
REMARK  235  A    between atoms: _595  and  _598
REMARK  236  A    between atoms: _598  and  _599
REMARK  237  A    between atoms: _599  and  _600
REMARK  238  A    between atoms: _600  and  _601
REMARK                            x       y       z     vdW  Elec       q    Type
REMARK                         _______ _______ _______ _____ _____    ______ ____
ROOT
ATOM      1  CA  ILE A   1      27.704  53.211 -16.204  0.00  0.00    +0.145 C 
ENDROOT
BRANCH   1   2
ATOM      2  C   ILE A   1      26.733  52.747 -17.282  0.00  0.00    +0.238 C 
ATOM      3  O   ILE A   1      25.512  52.928 -17.155  0.00  0.00    -0.274 OA
ATOM      4  N   GLY A   2      27.279  52.162 -18.346  0.00  0.00    -0.297 N 
ATOM      5  H   GLY A   2      28.274  51.862 -18.307  0.00  0.00    +0.150 HD
BRANCH   4   6
ATOM      6  CA  GLY A   2      26.507  51.931 -19.573  0.00  0.00    +0.163 C 
BRANCH   6   7
ATOM      7  C   GLY A   2      26.201  50.492 -19.909  0.00  0.00    +0.229 C 
ATOM      8  O   GLY A   2      26.206  49.604 -19.048  0.00  0.00    -0.286 OA
ENDBRANCH   6   7
ENDBRANCH   4   6
ENDBRANCH   1   2
BRANCH   1   9
ATOM      9  N   ILE A   1      28.076  54.585 -16.574  0.00  0.00    -0.238 NA
ATOM     10  H   ILE A   1      27.437  55.363 -16.315  0.00  0.00    +0.142 HD
ENDBRANCH   1   9
BRANCH   1  11
ATOM     11  CB  ILE A   1      27.055  53.147 -14.785  0.00  0.00    +0.025 C 
ATOM     12  CG2 ILE A   1      26.805  51.680 -14.327  0.00  0.00    +0.002 C 
BRANCH  11  13
ATOM     13  CG1 ILE A   1      27.904  53.901 -13.741  0.00  0.00    +0.002 C 
ATOM     14  CD1 ILE A   1      29.290  53.298 -13.492  0.00  0.00    +0.000 C 
ENDBRANCH  11  13
ENDBRANCH   1  11
TORSDOF 6
REMARK  Name = ../refined-set-2016/3hu3/3hu3_pocket.pdb
REMARK  238 active torsions:
REMARK  status: ('A' for Active; 'I' for Inactive)
REMARK    1  A    between atoms: _1  and  _3
REMARK    2  A    between atoms: _3  and  _4
REMARK    3  A    between atoms: _3  and  _6
REMARK    4  A    between atoms: _9  and  _11
REMARK    5  A    between atoms: _11  and  _12
REMARK    6  A    between atoms: _11  and  _14
REMARK    7  A    between atoms: _14  and  _15
REMARK    8  A    between atoms: _20  and  _21
REMARK    9  A    between atoms: _23  and  _25
REMARK   10  A    between atoms: _25  and  _26
REMARK   11  A    between atoms: _25  and  _28
REMARK   12  A    between atoms: _28  and  _29
REMARK   13  A    between atoms: _32  and  _34
REMARK   14  A    between atoms: _34  and  _35
REMARK   15  A    between atoms: _34  and  _37
REMARK   16  A    between atoms: _37  and  _38
REMARK   17  A    between atoms: _41  and  _43
REMARK   18  A    between atoms: _43  and  _44
REMARK   19  A    between atoms: _43  and  _46
REMARK   20  A    between atoms: _46  and  _47
REMARK   21  A    between atoms: _50  and  _52
REMARK   22  A    between atoms: _52  and  _53
REMARK   23  A    between atoms: _55  and  _57
REMARK   24  A    between atoms: _57  and  _58
REMARK   25  A    between atoms: _60  and  _62
REMARK   26  A    between atoms: _62  and  _63
REMARK   27  A    between atoms: _62  and  _65
REMARK   28  A    between atoms: _67  and  _69
REMARK   29  A    between atoms: _69  and  _70
REMARK   30  A    between atoms: _69  and  _72
REMARK   31  A    between atoms: _72  and  _73
REMARK   32  A    between atoms: _73  and  _74
REMARK   33  A    between atoms: _74  and  _75
REMARK   34  A    between atoms: _84  and  _86
REMARK   35  A    between atoms: _86  and  _87
REMARK   36  A    between atoms: _86  and  _89
REMARK   37  A    between atoms: _89  and  _90
REMARK   38  A    between atoms: _90  and  _91
REMARK   39  A    between atoms: _96  and  _98
REMARK   40  A    between atoms: _98  and  _99
REMARK   41  A    between atoms: _98  and  _101
REMARK   42  A    between atoms: _101  and  _102
REMARK   43  A    between atoms: _105  and  _107
REMARK   44  A    between atoms: _107  and  _108
REMARK   45  A    between atoms: _107  and  _110
REMARK   46  A    between atoms: _110  and  _111
REMARK   47  A    between atoms: _114  and  _116
REMARK   48  A    between atoms: _116  and  _117
REMARK   49  A    between atoms: _116  and  _119
REMARK   50  A    between atoms: _119  and  _120
REMARK   51  A    between atoms: _125  and  _126
REMARK   52  A    between atoms: _128  and  _130
REMARK   53  A    between atoms: _130  and  _131
REMARK   54  A    between atoms: _134  and  _135
REMARK   55  A    between atoms: _141  and  _142
REMARK   56  A    between atoms: _147  and  _149
REMARK   57  A    between atoms: _149  and  _150
REMARK   58  A    between atoms: _152  and  _154
REMARK   59  A    between atoms: _154  and  _155
REMARK   60  A    between atoms: _154  and  _157
REMARK   61  A    between atoms: _157  and  _158
REMARK   62  A    between atoms: _161  and  _163
REMARK   63  A    between atoms: _163  and  _164
REMARK   64  A    between atoms: _166  and  _168
REMARK   65  A    between atoms: _168  and  _169
REMARK   66  A    between atoms: _168  and  _171
REMARK   67  A    between atoms: _171  and  _172
REMARK   68  A    between atoms: _172  and  _173
REMARK   69  A    between atoms: _173  and  _174
REMARK   70  A    between atoms: _174  and  _175
REMARK   71  A    between atoms: _179  and  _181
REMARK   72  A    between atoms: _181  and  _182
REMARK   73  A    between atoms: _181  and  _184
REMARK   74  A    between atoms: _184  and  _185
REMARK   75  A    between atoms: _188  and  _190
REMARK   76  A    between atoms: _190  and  _191
REMARK   77  A    between atoms: _190  and  _193
REMARK   78  A    between atoms: _193  and  _194
REMARK   79  A    between atoms: _197  and  _199
REMARK   80  A    between atoms: _199  and  _200
REMARK   81  A    between atoms: _199  and  _202
REMARK   82  A    between atoms: _202  and  _203
REMARK   83  A    between atoms: _206  and  _208
REMARK   84  A    between atoms: _208  and  _209
REMARK   85  A    between atoms: _212  and  _214
REMARK   86  A    between atoms: _214  and  _215
REMARK   87  A    between atoms: _214  and  _217
REMARK   88  A    between atoms: _217  and  _218
REMARK   89  A    between atoms: _218  and  _219
REMARK   90  A    between atoms: _219  and  _220
REMARK   91  A    between atoms: _229  and  _231
REMARK   92  A    between atoms: _231  and  _232
REMARK   93  A    between atoms: _235  and  _237
REMARK   94  A    between atoms: _237  and  _238
REMARK   95  A    between atoms: _237  and  _240
REMARK   96  A    between atoms: _240  and  _241
REMARK   97  A    between atoms: _247  and  _249
REMARK   98  A    between atoms: _249  and  _250
REMARK   99  A    between atoms: _249  and  _252
REMARK  100  A    between atoms: _252  and  _253
REMARK  101  A    between atoms: _256  and  _258
REMARK  102  A    between atoms: _258  and  _259
REMARK  103  A    between atoms: _258  and  _261
REMARK  104  A    between atoms: _261  and  _262
REMARK  105  A    between atoms: _262  and  _263
REMARK  106  A    between atoms: _266  and  _268
REMARK  107  A    between atoms: _268  and  _269
REMARK  108  A    between atoms: _268  and  _271
REMARK  109  A    between atoms: _271  and  _272
REMARK  110  A    between atoms: _275  and  _277
REMARK  111  A    between atoms: _277  and  _278
REMARK  112  A    between atoms: _281  and  _283
REMARK  113  A    between atoms: _283  and  _284
REMARK  114  A    between atoms: _283  and  _286
REMARK  115  A    between atoms: _286  and  _287
REMARK  116  A    between atoms: _290  and  _292
REMARK  117  A    between atoms: _292  and  _293
REMARK  118  A    between atoms: _292  and  _295
REMARK  119  A    between atoms: _295  and  _296
REMARK  120  A    between atoms: _301  and  _303
REMARK  121  A    between atoms: _303  and  _304
REMARK  122  A    between atoms: _303  and  _306
REMARK  123  A    between atoms: _306  and  _307
REMARK  124  A    between atoms: _307  and  _308
REMARK  125  A    between atoms: _308  and  _309
REMARK  126  A    between atoms: _318  and  _320
REMARK  127  A    between atoms: _320  and  _321
REMARK  128  A    between atoms: _320  and  _323
REMARK  129  A    between atoms: _323  and  _324
REMARK  130  A    between atoms: _327  and  _329
REMARK  131  A    between atoms: _329  and  _330
REMARK  132  A    between atoms: _333  and  _334
REMARK  133  A    between atoms: _339  and  _341
REMARK  134  A    between atoms: _341  and  _342
REMARK  135  A    between atoms: _344  and  _346
REMARK  136  A    between atoms: _346  and  _347
REMARK  137  A    between atoms: _346  and  _349
REMARK  138  A    between atoms: _349  and  _350
REMARK  139  A    between atoms: _350  and  _351
REMARK  140  A    between atoms: _351  and  _352
REMARK  141  A    between atoms: _361  and  _363
REMARK  142  A    between atoms: _363  and  _364
REMARK  143  A    between atoms: _363  and  _366
REMARK  144  A    between atoms: _366  and  _367
REMARK  145  A    between atoms: _367  and  _368
REMARK  146  A    between atoms: _371  and  _373
REMARK  147  A    between atoms: _373  and  _374
REMARK  148  A    between atoms: _373  and  _376
REMARK  149  A    between atoms: _376  and  _377
REMARK  150  A    between atoms: _380  and  _382
REMARK  151  A    between atoms: _382  and  _383
REMARK  152  A    between atoms: _382  and  _385
REMARK  153  A    between atoms: _385  and  _386
REMARK  154  A    between atoms: _389  and  _391
REMARK  155  A    between atoms: _391  and  _392
REMARK  156  A    between atoms: _391  and  _394
REMARK  157  A    between atoms: _394  and  _395
REMARK  158  A    between atoms: _395  and  _396
REMARK  159  A    between atoms: _401  and  _403
REMARK  160  A    between atoms: _403  and  _404
REMARK  161  A    between atoms: _403  and  _406
REMARK  162  A    between atoms: _406  and  _407
REMARK  163  A    between atoms: _410  and  _412
REMARK  164  A    between atoms: _412  and  _413
REMARK  165  A    between atoms: _412  and  _415
REMARK  166  A    between atoms: _415  and  _416
REMARK  167  A    between atoms: _421  and  _423
REMARK  168  A    between atoms: _423  and  _424
REMARK  169  A    between atoms: _423  and  _426
REMARK  170  A    between atoms: _429  and  _431
REMARK  171  A    between atoms: _431  and  _432
REMARK  172  A    between atoms: _434  and  _436
REMARK  173  A    between atoms: _436  and  _437
REMARK  174  A    between atoms: _440  and  _442
REMARK  175  A    between atoms: _442  and  _443
REMARK  176  A    between atoms: _442  and  _445
REMARK  177  A    between atoms: _445  and  _446
REMARK  178  A    between atoms: _449  and  _451
REMARK  179  A    between atoms: _451  and  _452
REMARK  180  A    between atoms: _451  and  _454
REMARK  181  A    between atoms: _454  and  _455
REMARK  182  A    between atoms: _458  and  _460
REMARK  183  A    between atoms: _460  and  _461
REMARK  184  A    between atoms: _464  and  _466
REMARK  185  A    between atoms: _466  and  _467
REMARK  186  A    between atoms: _470  and  _472
REMARK  187  A    between atoms: _472  and  _473
REMARK  188  A    between atoms: _472  and  _475
REMARK  189  A    between atoms: _475  and  _476
REMARK  190  A    between atoms: _478  and  _480
REMARK  191  A    between atoms: _480  and  _481
REMARK  192  A    between atoms: _480  and  _483
REMARK  193  A    between atoms: _483  and  _484
REMARK  194  A    between atoms: _484  and  _485
REMARK  195  A    between atoms: _485  and  _486
REMARK  196  A    between atoms: _486  and  _487
REMARK  197  A    between atoms: _491  and  _493
REMARK  198  A    between atoms: _493  and  _494
REMARK  199  A    between atoms: _493  and  _496
REMARK  200  A    between atoms: _496  and  _497
REMARK  201  A    between atoms: _497  and  _498
REMARK  202  A    between atoms: _498  and  _499
REMARK  203  A    between atoms: _508  and  _510
REMARK  204  A    between atoms: _510  and  _511
REMARK  205  A    between atoms: _510  and  _513
REMARK  206  A    between atoms: _513  and  _514
REMARK  207  A    between atoms: _517  and  _519
REMARK  208  A    between atoms: _519  and  _520
REMARK  209  A    between atoms: _519  and  _522
REMARK  210  A    between atoms: _522  and  _523
REMARK  211  A    between atoms: _523  and  _524
REMARK  212  A    between atoms: _530  and  _531
REMARK  213  A    between atoms: _536  and  _538
REMARK  214  A    between atoms: _538  and  _539
REMARK  215  A    between atoms: _542  and  _544
REMARK  216  A    between atoms: _544  and  _545
REMARK  217  A    between atoms: _544  and  _547
REMARK  218  A    between atoms: _547  and  _548
REMARK  219  A    between atoms: _548  and  _549
REMARK  220  A    between atoms: _549  and  _550
REMARK  221  A    between atoms: _559  and  _561
REMARK  222  A    between atoms: _561  and  _562
REMARK  223  A    between atoms: _561  and  _564
REMARK  224  A    between atoms: _564  and  _565
REMARK  225  A    between atoms: _565  and  _566
REMARK  226  A    between atoms: _566  and  _567
REMARK  227  A    between atoms: _576  and  _578
REMARK  228  A    between atoms: _578  and  _579
REMARK  229  A    between atoms: _578  and  _581
REMARK  230  A    between atoms: _581  and  _582
REMARK  231  A    between atoms: _588  and  _590
REMARK  232  A    between atoms: _590  and  _591
REMARK  233  A    between atoms: _593  and  _595
REMARK  234  A    between atoms: _595  and  _596
REMARK  235  A    between atoms: _595  and  _598
REMARK  236  A    between atoms: _598  and  _599
REMARK  237  A    between atoms: _599  and  _600
REMARK  238  A    between atoms: _600  and  _601
REMARK                            x       y       z     vdW  Elec       q    Type
REMARK                         _______ _______ _______ _____ _____    ______ ____
ROOT
ATOM      1  N   PRO A   1      26.651  46.811 -21.056  0.00  0.00    -0.212 NA
ATOM      2  CD  PRO A   1      25.493  46.233 -20.336  0.00  0.00    +0.089 C 
ATOM      3  CG  PRO A   1      25.927  44.838 -20.020  0.00  0.00    +0.021 C 
ATOM      4  CB  PRO A   1      27.463  44.851 -20.045  0.00  0.00    +0.027 C 
ATOM      5  CA  PRO A   1      27.804  45.912 -21.097  0.00  0.00    +0.137 C 
ENDROOT
BRANCH   5   6
ATOM      6  C   PRO A   1      27.972  45.266 -22.478  0.00  0.00    +0.224 C 
ATOM      7  O   PRO A   1      27.041  45.296 -23.304  0.00  0.00    -0.287 OA
ENDBRANCH   5   6
TORSDOF 1
REMARK  Name = ../refined-set-2016/3hu3/3hu3_pocket.pdb
REMARK  238 active torsions:
REMARK  status: ('A' for Active; 'I' for Inactive)
REMARK    1  A    between atoms: _1  and  _3
REMARK    2  A    between atoms: _3  and  _4
REMARK    3  A    between atoms: _3  and  _6
REMARK    4  A    between atoms: _9  and  _11
REMARK    5  A    between atoms: _11  and  _12
REMARK    6  A    between atoms: _11  and  _14
REMARK    7  A    between atoms: _14  and  _15
REMARK    8  A    between atoms: _20  and  _21
REMARK    9  A    between atoms: _23  and  _25
REMARK   10  A    between atoms: _25  and  _26
REMARK   11  A    between atoms: _25  and  _28
REMARK   12  A    between atoms: _28  and  _29
REMARK   13  A    between atoms: _32  and  _34
REMARK   14  A    between atoms: _34  and  _35
REMARK   15  A    between atoms: _34  and  _37
REMARK   16  A    between atoms: _37  and  _38
REMARK   17  A    between atoms: _41  and  _43
REMARK   18  A    between atoms: _43  and  _44
REMARK   19  A    between atoms: _43  and  _46
REMARK   20  A    between atoms: _46  and  _47
REMARK   21  A    between atoms: _50  and  _52
REMARK   22  A    between atoms: _52  and  _53
REMARK   23  A    between atoms: _55  and  _57
REMARK   24  A    between atoms: _57  and  _58
REMARK   25  A    between atoms: _60  and  _62
REMARK   26  A    between atoms: _62  and  _63
REMARK   27  A    between atoms: _62  and  _65
REMARK   28  A    between atoms: _67  and  _69
REMARK   29  A    between atoms: _69  and  _70
REMARK   30  A    between atoms: _69  and  _72
REMARK   31  A    between atoms: _72  and  _73
REMARK   32  A    between atoms: _73  and  _74
REMARK   33  A    between atoms: _74  and  _75
REMARK   34  A    between atoms: _84  and  _86
REMARK   35  A    between atoms: _86  and  _87
REMARK   36  A    between atoms: _86  and  _89
REMARK   37  A    between atoms: _89  and  _90
REMARK   38  A    between atoms: _90  and  _91
REMARK   39  A    between atoms: _96  and  _98
REMARK   40  A    between atoms: _98  and  _99
REMARK   41  A    between atoms: _98  and  _101
REMARK   42  A    between atoms: _101  and  _102
REMARK   43  A    between atoms: _105  and  _107
REMARK   44  A    between atoms: _107  and  _108
REMARK   45  A    between atoms: _107  and  _110
REMARK   46  A    between atoms: _110  and  _111
REMARK   47  A    between atoms: _114  and  _116
REMARK   48  A    between atoms: _116  and  _117
REMARK   49  A    between atoms: _116  and  _119
REMARK   50  A    between atoms: _119  and  _120
REMARK   51  A    between atoms: _125  and  _126
REMARK   52  A    between atoms: _128  and  _130
REMARK   53  A    between atoms: _130  and  _131
REMARK   54  A    between atoms: _134  and  _135
REMARK   55  A    between atoms: _141  and  _142
REMARK   56  A    between atoms: _147  and  _149
REMARK   57  A    between atoms: _149  and  _150
REMARK   58  A    between atoms: _152  and  _154
REMARK   59  A    between atoms: _154  and  _155
REMARK   60  A    between atoms: _154  and  _157
REMARK   61  A    between atoms: _157  and  _158
REMARK   62  A    between atoms: _161  and  _163
REMARK   63  A    between atoms: _163  and  _164
REMARK   64  A    between atoms: _166  and  _168
REMARK   65  A    between atoms: _168  and  _169
REMARK   66  A    between atoms: _168  and  _171
REMARK   67  A    between atoms: _171  and  _172
REMARK   68  A    between atoms: _172  and  _173
REMARK   69  A    between atoms: _173  and  _174
REMARK   70  A    between atoms: _174  and  _175
REMARK   71  A    between atoms: _179  and  _181
REMARK   72  A    between atoms: _181  and  _182
REMARK   73  A    between atoms: _181  and  _184
REMARK   74  A    between atoms: _184  and  _185
REMARK   75  A    between atoms: _188  and  _190
REMARK   76  A    between atoms: _190  and  _191
REMARK   77  A    between atoms: _190  and  _193
REMARK   78  A    between atoms: _193  and  _194
REMARK   79  A    between atoms: _197  and  _199
REMARK   80  A    between atoms: _199  and  _200
REMARK   81  A    between atoms: _199  and  _202
REMARK   82  A    between atoms: _202  and  _203
REMARK   83  A    between atoms: _206  and  _208
REMARK   84  A    between atoms: _208  and  _209
REMARK   85  A    between atoms: _212  and  _214
REMARK   86  A    between atoms: _214  and  _215
REMARK   87  A    between atoms: _214  and  _217
REMARK   88  A    between atoms: _217  and  _218
REMARK   89  A    between atoms: _218  and  _219
REMARK   90  A    between atoms: _219  and  _220
REMARK   91  A    between atoms: _229  and  _231
REMARK   92  A    between atoms: _231  and  _232
REMARK   93  A    between atoms: _235  and  _237
REMARK   94  A    between atoms: _237  and  _238
REMARK   95  A    between atoms: _237  and  _240
REMARK   96  A    between atoms: _240  and  _241
REMARK   97  A    between atoms: _247  and  _249
REMARK   98  A    between atoms: _249  and  _250
REMARK   99  A    between atoms: _249  and  _252
REMARK  100  A    between atoms: _252  and  _253
REMARK  101  A    between atoms: _256  and  _258
REMARK  102  A    between atoms: _258  and  _259
REMARK  103  A    between atoms: _258  and  _261
REMARK  104  A    between atoms: _261  and  _262
REMARK  105  A    between atoms: _262  and  _263
REMARK  106  A    between atoms: _266  and  _268
REMARK  107  A    between atoms: _268  and  _269
REMARK  108  A    between atoms: _268  and  _271
REMARK  109  A    between atoms: _271  and  _272
REMARK  110  A    between atoms: _275  and  _277
REMARK  111  A    between atoms: _277  and  _278
REMARK  112  A    between atoms: _281  and  _283
REMARK  113  A    between atoms: _283  and  _284
REMARK  114  A    between atoms: _283  and  _286
REMARK  115  A    between atoms: _286  and  _287
REMARK  116  A    between atoms: _290  and  _292
REMARK  117  A    between atoms: _292  and  _293
REMARK  118  A    between atoms: _292  and  _295
REMARK  119  A    between atoms: _295  and  _296
REMARK  120  A    between atoms: _301  and  _303
REMARK  121  A    between atoms: _303  and  _304
REMARK  122  A    between atoms: _303  and  _306
REMARK  123  A    between atoms: _306  and  _307
REMARK  124  A    between atoms: _307  and  _308
REMARK  125  A    between atoms: _308  and  _309
REMARK  126  A    between atoms: _318  and  _320
REMARK  127  A    between atoms: _320  and  _321
REMARK  128  A    between atoms: _320  and  _323
REMARK  129  A    between atoms: _323  and  _324
REMARK  130  A    between atoms: _327  and  _329
REMARK  131  A    between atoms: _329  and  _330
REMARK  132  A    between atoms: _333  and  _334
REMARK  133  A    between atoms: _339  and  _341
REMARK  134  A    between atoms: _341  and  _342
REMARK  135  A    between atoms: _344  and  _346
REMARK  136  A    between atoms: _346  and  _347
REMARK  137  A    between atoms: _346  and  _349
REMARK  138  A    between atoms: _349  and  _350
REMARK  139  A    between atoms: _350  and  _351
REMARK  140  A    between atoms: _351  and  _352
REMARK  141  A    between atoms: _361  and  _363
REMARK  142  A    between atoms: _363  and  _364
REMARK  143  A    between atoms: _363  and  _366
REMARK  144  A    between atoms: _366  and  _367
REMARK  145  A    between atoms: _367  and  _368
REMARK  146  A    between atoms: _371  and  _373
REMARK  147  A    between atoms: _373  and  _374
REMARK  148  A    between atoms: _373  and  _376
REMARK  149  A    between atoms: _376  and  _377
REMARK  150  A    between atoms: _380  and  _382
REMARK  151  A    between atoms: _382  and  _383
REMARK  152  A    between atoms: _382  and  _385
REMARK  153  A    between atoms: _385  and  _386
REMARK  154  A    between atoms: _389  and  _391
REMARK  155  A    between atoms: _391  and  _392
REMARK  156  A    between atoms: _391  and  _394
REMARK  157  A    between atoms: _394  and  _395
REMARK  158  A    between atoms: _395  and  _396
REMARK  159  A    between atoms: _401  and  _403
REMARK  160  A    between atoms: _403  and  _404
REMARK  161  A    between atoms: _403  and  _406
REMARK  162  A    between atoms: _406  and  _407
REMARK  163  A    between atoms: _410  and  _412
REMARK  164  A    between atoms: _412  and  _413
REMARK  165  A    between atoms: _412  and  _415
REMARK  166  A    between atoms: _415  and  _416
REMARK  167  A    between atoms: _421  and  _423
REMARK  168  A    between atoms: _423  and  _424
REMARK  169  A    between atoms: _423  and  _426
REMARK  170  A    between atoms: _429  and  _431
REMARK  171  A    between atoms: _431  and  _432
REMARK  172  A    between atoms: _434  and  _436
REMARK  173  A    between atoms: _436  and  _437
REMARK  174  A    between atoms: _440  and  _442
REMARK  175  A    between atoms: _442  and  _443
REMARK  176  A    between atoms: _442  and  _445
REMARK  177  A    between atoms: _445  and  _446
REMARK  178  A    between atoms: _449  and  _451
REMARK  179  A    between atoms: _451  and  _452
REMARK  180  A    between atoms: _451  and  _454
REMARK  181  A    between atoms: _454  and  _455
REMARK  182  A    between atoms: _458  and  _460
REMARK  183  A    between atoms: _460  and  _461
REMARK  184  A    between atoms: _464  and  _466
REMARK  185  A    between atoms: _466  and  _467
REMARK  186  A    between atoms: _470  and  _472
REMARK  187  A    between atoms: _472  and  _473
REMARK  188  A    between atoms: _472  and  _475
REMARK  189  A    between atoms: _475  and  _476
REMARK  190  A    between atoms: _478  and  _480
REMARK  191  A    between atoms: _480  and  _481
REMARK  192  A    between atoms: _480  and  _483
REMARK  193  A    between atoms: _483  and  _484
REMARK  194  A    between atoms: _484  and  _485
REMARK  195  A    between atoms: _485  and  _486
REMARK  196  A    between atoms: _486  and  _487
REMARK  197  A    between atoms: _491  and  _493
REMARK  198  A    between atoms: _493  and  _494
REMARK  199  A    between atoms: _493  and  _496
REMARK  200  A    between atoms: _496  and  _497
REMARK  201  A    between atoms: _497  and  _498
REMARK  202  A    between atoms: _498  and  _499
REMARK  203  A    between atoms: _508  and  _510
REMARK  204  A    between atoms: _510  and  _511
REMARK  205  A    between atoms: _510  and  _513
REMARK  206  A    between atoms: _513  and  _514
REMARK  207  A    between atoms: _517  and  _519
REMARK  208  A    between atoms: _519  and  _520
REMARK  209  A    between atoms: _519  and  _522
REMARK  210  A    between atoms: _522  and  _523
REMARK  211  A    between atoms: _523  and  _524
REMARK  212  A    between atoms: _530  and  _531
REMARK  213  A    between atoms: _536  and  _538
REMARK  214  A    between atoms: _538  and  _539
REMARK  215  A    between atoms: _542  and  _544
REMARK  216  A    between atoms: _544  and  _545
REMARK  217  A    between atoms: _544  and  _547
REMARK  218  A    between atoms: _547  and  _548
REMARK  219  A    between atoms: _548  and  _549
REMARK  220  A    between atoms: _549  and  _550
REMARK  221  A    between atoms: _559  and  _561
REMARK  222  A    between atoms: _561  and  _562
REMARK  223  A    between atoms: _561  and  _564
REMARK  224  A    between atoms: _564  and  _565
REMARK  225  A    between atoms: _565  and  _566
REMARK  226  A    between atoms: _566  and  _567
REMARK  227  A    between atoms: _576  and  _578
REMARK  228  A    between atoms: _578  and  _579
REMARK  229  A    between atoms: _578  and  _581
REMARK  230  A    between atoms: _581  and  _582
REMARK  231  A    between atoms: _588  and  _590
REMARK  232  A    between atoms: _590  and  _591
REMARK  233  A    between atoms: _593  and  _595
REMARK  234  A    between atoms: _595  and  _596
REMARK  235  A    between atoms: _595  and  _598
REMARK  236  A    between atoms: _598  and  _599
REMARK  237  A    between atoms: _599  and  _600
REMARK  238  A    between atoms: _600  and  _601
REMARK                            x       y       z     vdW  Elec       q    Type
REMARK                         _______ _______ _______ _____ _____    ______ ____
ROOT
ATOM      1  CB  ARG A   2      26.374  39.999 -21.110  0.00  0.00    +0.031 C 
ENDROOT
BRANCH   1   2
ATOM      2  CA  ARG A   2      27.171  40.147 -19.811  0.00  0.00    +0.137 C 
BRANCH   2   5
ATOM      3  C   GLY A   1      29.254  41.178 -19.026  0.00  0.00    +0.240 C 
ATOM      4  O   GLY A   1      29.044  40.888 -17.842  0.00  0.00    -0.274 OA
ATOM      5  N   ARG A   2      28.432  40.864 -20.028  0.00  0.00    -0.298 N 
ATOM      6  H   ARG A   2      28.694  41.137 -20.997  0.00  0.00    +0.150 HD
BRANCH   3   7
ATOM      7  CA  GLY A   1      30.514  41.925 -19.417  0.00  0.00    +0.169 C 
BRANCH   7   8
ATOM      8  N   GLY A   1      31.163  41.343 -20.584  0.00  0.00    -0.236 NA
ATOM      9  H   GLY A   1      31.263  41.914 -21.447  0.00  0.00    +0.142 HD
ENDBRANCH   7   8
ENDBRANCH   3   7
ENDBRANCH   2   5
BRANCH   2  10
ATOM     10  C   ARG A   2      27.402  38.803 -19.170  0.00  0.00    +0.227 C 
ATOM     11  O   ARG A   2      26.679  38.413 -18.283  0.00  0.00    -0.286 OA
ENDBRANCH   2  10
ENDBRANCH   1   2
BRANCH   1  12
ATOM     12  CG  ARG A   2      25.695  41.280 -21.531  0.00  0.00    +0.045 C 
BRANCH  12  13
ATOM     13  CD  ARG A   2      24.563  41.012 -22.533  0.00  0.00    +0.174 C 
BRANCH  13  14
ATOM     14  NE  ARG A   2      25.013  40.221 -23.679  0.00  0.00    -0.265 N 
ATOM     15  HE  ARG A   2      24.860  39.193 -23.649  0.00  0.00    +0.259 HD
ATOM     16  CZ  ARG A   2      25.605  40.729 -24.756  0.00  0.00    +0.342 C 
ATOM     17  NH2 ARG A   2      25.821  42.039 -24.860  0.00  0.00    -0.292 N 
ATOM     18 HH21 ARG A   2      25.526  42.677 -24.094  0.00  0.00    +0.255 HD
ATOM     19 HH22 ARG A   2      26.285  42.424 -25.707  0.00  0.00    +0.255 HD
ATOM     20  NH1 ARG A   2      25.966  39.930 -25.738  0.00  0.00    -0.292 N 
ATOM     21 HH11 ARG A   2      25.788  38.908 -25.669  0.00  0.00    +0.255 HD
ATOM     22 HH12 ARG A   2      26.429  40.321 -26.583  0.00  0.00    +0.255 HD
ENDBRANCH  13  14
ENDBRANCH  12  13
ENDBRANCH   1  12
TORSDOF 8
REMARK  Name = ../refined-set-2016/3hu3/3hu3_pocket.pdb
REMARK  238 active torsions:
REMARK  status: ('A' for Active; 'I' for Inactive)
REMARK    1  A    between atoms: _1  and  _3
REMARK    2  A    between atoms: _3  and  _4
REMARK    3  A    between atoms: _3  and  _6
REMARK    4  A    between atoms: _9  and  _11
REMARK    5  A    between atoms: _11  and  _12
REMARK    6  A    between atoms: _11  and  _14
REMARK    7  A    between atoms: _14  and  _15
REMARK    8  A    between atoms: _20  and  _21
REMARK    9  A    between atoms: _23  and  _25
REMARK   10  A    between atoms: _25  and  _26
REMARK   11  A    between atoms: _25  and  _28
REMARK   12  A    between atoms: _28  and  _29
REMARK   13  A    between atoms: _32  and  _34
REMARK   14  A    between atoms: _34  and  _35
REMARK   15  A    between atoms: _34  and  _37
REMARK   16  A    between atoms: _37  and  _38
REMARK   17  A    between atoms: _41  and  _43
REMARK   18  A    between atoms: _43  and  _44
REMARK   19  A    between atoms: _43  and  _46
REMARK   20  A    between atoms: _46  and  _47
REMARK   21  A    between atoms: _50  and  _52
REMARK   22  A    between atoms: _52  and  _53
REMARK   23  A    between atoms: _55  and  _57
REMARK   24  A    between atoms: _57  and  _58
REMARK   25  A    between atoms: _60  and  _62
REMARK   26  A    between atoms: _62  and  _63
REMARK   27  A    between atoms: _62  and  _65
REMARK   28  A    between atoms: _67  and  _69
REMARK   29  A    between atoms: _69  and  _70
REMARK   30  A    between atoms: _69  and  _72
REMARK   31  A    between atoms: _72  and  _73
REMARK   32  A    between atoms: _73  and  _74
REMARK   33  A    between atoms: _74  and  _75
REMARK   34  A    between atoms: _84  and  _86
REMARK   35  A    between atoms: _86  and  _87
REMARK   36  A    between atoms: _86  and  _89
REMARK   37  A    between atoms: _89  and  _90
REMARK   38  A    between atoms: _90  and  _91
REMARK   39  A    between atoms: _96  and  _98
REMARK   40  A    between atoms: _98  and  _99
REMARK   41  A    between atoms: _98  and  _101
REMARK   42  A    between atoms: _101  and  _102
REMARK   43  A    between atoms: _105  and  _107
REMARK   44  A    between atoms: _107  and  _108
REMARK   45  A    between atoms: _107  and  _110
REMARK   46  A    between atoms: _110  and  _111
REMARK   47  A    between atoms: _114  and  _116
REMARK   48  A    between atoms: _116  and  _117
REMARK   49  A    between atoms: _116  and  _119
REMARK   50  A    between atoms: _119  and  _120
REMARK   51  A    between atoms: _125  and  _126
REMARK   52  A    between atoms: _128  and  _130
REMARK   53  A    between atoms: _130  and  _131
REMARK   54  A    between atoms: _134  and  _135
REMARK   55  A    between atoms: _141  and  _142
REMARK   56  A    between atoms: _147  and  _149
REMARK   57  A    between atoms: _149  and  _150
REMARK   58  A    between atoms: _152  and  _154
REMARK   59  A    between atoms: _154  and  _155
REMARK   60  A    between atoms: _154  and  _157
REMARK   61  A    between atoms: _157  and  _158
REMARK   62  A    between atoms: _161  and  _163
REMARK   63  A    between atoms: _163  and  _164
REMARK   64  A    between atoms: _166  and  _168
REMARK   65  A    between atoms: _168  and  _169
REMARK   66  A    between atoms: _168  and  _171
REMARK   67  A    between atoms: _171  and  _172
REMARK   68  A    between atoms: _172  and  _173
REMARK   69  A    between atoms: _173  and  _174
REMARK   70  A    between atoms: _174  and  _175
REMARK   71  A    between atoms: _179  and  _181
REMARK   72  A    between atoms: _181  and  _182
REMARK   73  A    between atoms: _181  and  _184
REMARK   74  A    between atoms: _184  and  _185
REMARK   75  A    between atoms: _188  and  _190
REMARK   76  A    between atoms: _190  and  _191
REMARK   77  A    between atoms: _190  and  _193
REMARK   78  A    between atoms: _193  and  _194
REMARK   79  A    between atoms: _197  and  _199
REMARK   80  A    between atoms: _199  and  _200
REMARK   81  A    between atoms: _199  and  _202
REMARK   82  A    between atoms: _202  and  _203
REMARK   83  A    between atoms: _206  and  _208
REMARK   84  A    between atoms: _208  and  _209
REMARK   85  A    between atoms: _212  and  _214
REMARK   86  A    between atoms: _214  and  _215
REMARK   87  A    between atoms: _214  and  _217
REMARK   88  A    between atoms: _217  and  _218
REMARK   89  A    between atoms: _218  and  _219
REMARK   90  A    between atoms: _219  and  _220
REMARK   91  A    between atoms: _229  and  _231
REMARK   92  A    between atoms: _231  and  _232
REMARK   93  A    between atoms: _235  and  _237
REMARK   94  A    between atoms: _237  and  _238
REMARK   95  A    between atoms: _237  and  _240
REMARK   96  A    between atoms: _240  and  _241
REMARK   97  A    between atoms: _247  and  _249
REMARK   98  A    between atoms: _249  and  _250
REMARK   99  A    between atoms: _249  and  _252
REMARK  100  A    between atoms: _252  and  _253
REMARK  101  A    between atoms: _256  and  _258
REMARK  102  A    between atoms: _258  and  _259
REMARK  103  A    between atoms: _258  and  _261
REMARK  104  A    between atoms: _261  and  _262
REMARK  105  A    between atoms: _262  and  _263
REMARK  106  A    between atoms: _266  and  _268
REMARK  107  A    between atoms: _268  and  _269
REMARK  108  A    between atoms: _268  and  _271
REMARK  109  A    between atoms: _271  and  _272
REMARK  110  A    between atoms: _275  and  _277
REMARK  111  A    between atoms: _277  and  _278
REMARK  112  A    between atoms: _281  and  _283
REMARK  113  A    between atoms: _283  and  _284
REMARK  114  A    between atoms: _283  and  _286
REMARK  115  A    between atoms: _286  and  _287
REMARK  116  A    between atoms: _290  and  _292
REMARK  117  A    between atoms: _292  and  _293
REMARK  118  A    between atoms: _292  and  _295
REMARK  119  A    between atoms: _295  and  _296
REMARK  120  A    between atoms: _301  and  _303
REMARK  121  A    between atoms: _303  and  _304
REMARK  122  A    between atoms: _303  and  _306
REMARK  123  A    between atoms: _306  and  _307
REMARK  124  A    between atoms: _307  and  _308
REMARK  125  A    between atoms: _308  and  _309
REMARK  126  A    between atoms: _318  and  _320
REMARK  127  A    between atoms: _320  and  _321
REMARK  128  A    between atoms: _320  and  _323
REMARK  129  A    between atoms: _323  and  _324
REMARK  130  A    between atoms: _327  and  _329
REMARK  131  A    between atoms: _329  and  _330
REMARK  132  A    between atoms: _333  and  _334
REMARK  133  A    between atoms: _339  and  _341
REMARK  134  A    between atoms: _341  and  _342
REMARK  135  A    between atoms: _344  and  _346
REMARK  136  A    between atoms: _346  and  _347
REMARK  137  A    between atoms: _346  and  _349
REMARK  138  A    between atoms: _349  and  _350
REMARK  139  A    between atoms: _350  and  _351
REMARK  140  A    between atoms: _351  and  _352
REMARK  141  A    between atoms: _361  and  _363
REMARK  142  A    between atoms: _363  and  _364
REMARK  143  A    between atoms: _363  and  _366
REMARK  144  A    between atoms: _366  and  _367
REMARK  145  A    between atoms: _367  and  _368
REMARK  146  A    between atoms: _371  and  _373
REMARK  147  A    between atoms: _373  and  _374
REMARK  148  A    between atoms: _373  and  _376
REMARK  149  A    between atoms: _376  and  _377
REMARK  150  A    between atoms: _380  and  _382
REMARK  151  A    between atoms: _382  and  _383
REMARK  152  A    between atoms: _382  and  _385
REMARK  153  A    between atoms: _385  and  _386
REMARK  154  A    between atoms: _389  and  _391
REMARK  155  A    between atoms: _391  and  _392
REMARK  156  A    between atoms: _391  and  _394
REMARK  157  A    between atoms: _394  and  _395
REMARK  158  A    between atoms: _395  and  _396
REMARK  159  A    between atoms: _401  and  _403
REMARK  160  A    between atoms: _403  and  _404
REMARK  161  A    between atoms: _403  and  _406
REMARK  162  A    between atoms: _406  and  _407
REMARK  163  A    between atoms: _410  and  _412
REMARK  164  A    between atoms: _412  and  _413
REMARK  165  A    between atoms: _412  and  _415
REMARK  166  A    between atoms: _415  and  _416
REMARK  167  A    between atoms: _421  and  _423
REMARK  168  A    between atoms: _423  and  _424
REMARK  169  A    between atoms: _423  and  _426
REMARK  170  A    between atoms: _429  and  _431
REMARK  171  A    between atoms: _431  and  _432
REMARK  172  A    between atoms: _434  and  _436
REMARK  173  A    between atoms: _436  and  _437
REMARK  174  A    between atoms: _440  and  _442
REMARK  175  A    between atoms: _442  and  _443
REMARK  176  A    between atoms: _442  and  _445
REMARK  177  A    between atoms: _445  and  _446
REMARK  178  A    between atoms: _449  and  _451
REMARK  179  A    between atoms: _451  and  _452
REMARK  180  A    between atoms: _451  and  _454
REMARK  181  A    between atoms: _454  and  _455
REMARK  182  A    between atoms: _458  and  _460
REMARK  183  A    between atoms: _460  and  _461
REMARK  184  A    between atoms: _464  and  _466
REMARK  185  A    between atoms: _466  and  _467
REMARK  186  A    between atoms: _470  and  _472
REMARK  187  A    between atoms: _472  and  _473
REMARK  188  A    between atoms: _472  and  _475
REMARK  189  A    between atoms: _475  and  _476
REMARK  190  A    between atoms: _478  and  _480
REMARK  191  A    between atoms: _480  and  _481
REMARK  192  A    between atoms: _480  and  _483
REMARK  193  A    between atoms: _483  and  _484
REMARK  194  A    between atoms: _484  and  _485
REMARK  195  A    between atoms: _485  and  _486
REMARK  196  A    between atoms: _486  and  _487
REMARK  197  A    between atoms: _491  and  _493
REMARK  198  A    between atoms: _493  and  _494
REMARK  199  A    between atoms: _493  and  _496
REMARK  200  A    between atoms: _496  and  _497
REMARK  201  A    between atoms: _497  and  _498
REMARK  202  A    between atoms: _498  and  _499
REMARK  203  A    between atoms: _508  and  _510
REMARK  204  A    between atoms: _510  and  _511
REMARK  205  A    between atoms: _510  and  _513
REMARK  206  A    between atoms: _513  and  _514
REMARK  207  A    between atoms: _517  and  _519
REMARK  208  A    between atoms: _519  and  _520
REMARK  209  A    between atoms: _519  and  _522
REMARK  210  A    between atoms: _522  and  _523
REMARK  211  A    between atoms: _523  and  _524
REMARK  212  A    between atoms: _530  and  _531
REMARK  213  A    between atoms: _536  and  _538
REMARK  214  A    between atoms: _538  and  _539
REMARK  215  A    between atoms: _542  and  _544
REMARK  216  A    between atoms: _544  and  _545
REMARK  217  A    between atoms: _544  and  _547
REMARK  218  A    between atoms: _547  and  _548
REMARK  219  A    between atoms: _548  and  _549
REMARK  220  A    between atoms: _549  and  _550
REMARK  221  A    between atoms: _559  and  _561
REMARK  222  A    between atoms: _561  and  _562
REMARK  223  A    between atoms: _561  and  _564
REMARK  224  A    between atoms: _564  and  _565
REMARK  225  A    between atoms: _565  and  _566
REMARK  226  A    between atoms: _566  and  _567
REMARK  227  A    between atoms: _576  and  _578
REMARK  228  A    between atoms: _578  and  _579
REMARK  229  A    between atoms: _578  and  _581
REMARK  230  A    between atoms: _581  and  _582
REMARK  231  A    between atoms: _588  and  _590
REMARK  232  A    between atoms: _590  and  _591
REMARK  233  A    between atoms: _593  and  _595
REMARK  234  A    between atoms: _595  and  _596
REMARK  235  A    between atoms: _595  and  _598
REMARK  236  A    between atoms: _598  and  _599
REMARK  237  A    between atoms: _599  and  _600
REMARK  238  A    between atoms: _600  and  _601
REMARK                            x       y       z     vdW  Elec       q    Type
REMARK                         _______ _______ _______ _____ _____    ______ ____
ROOT
ATOM      1  C   LEU A   3      25.937  35.093 -14.572  0.00  0.00    +0.241 C 
ATOM      2  O   LEU A   3      25.197  34.270 -14.041  0.00  0.00    -0.273 OA
ATOM      3  N   GLN A   4      27.258  35.135 -14.368  0.00  0.00    -0.297 N 
ATOM      4  H   GLN A   4      27.826  35.826 -14.898  0.00  0.00    +0.150 HD
ENDROOT
BRANCH   3   5
ATOM      5  CA  GLN A   4      27.926  34.248 -13.431  0.00  0.00    +0.149 C 
BRANCH   5   6
ATOM      6  C   GLN A   4      27.670  34.741 -11.993  0.00  0.00    +0.241 C 
ATOM      7  O   GLN A   4      27.543  33.960 -11.053  0.00  0.00    -0.273 OA
ATOM      8  N   ILE A   5      27.597  36.059 -11.837  0.00  0.00    -0.297 N 
ATOM      9  H   ILE A   5      27.765  36.676 -12.657  0.00  0.00    +0.150 HD
BRANCH   8  10
ATOM     10  CA  ILE A   5      27.287  36.662 -10.545  0.00  0.00    +0.149 C 
BRANCH  10  11
ATOM     11  C   ILE A   5      25.884  36.294 -10.109  0.00  0.00    +0.241 C 
ATOM     12  O   ILE A   5      25.676  35.878  -8.967  0.00  0.00    -0.273 OA
ATOM     13  N   HIS A   6      24.920  36.438 -11.020  0.00  0.00    -0.298 N 
ATOM     14  H   HIS A   6      25.174  36.728 -11.986  0.00  0.00    +0.150 HD
BRANCH  13  15
ATOM     15  CA  HIS A   6      23.525  36.200 -10.697  0.00  0.00    +0.143 C 
BRANCH  15  16
ATOM     16  C   HIS A   6      23.069  34.734 -10.646  0.00  0.00    +0.227 C 
ATOM     17  O   HIS A   6      21.939  34.462 -10.248  0.00  0.00    -0.286 OA
ENDBRANCH  15  16
BRANCH  15  18
ATOM     18  CB  HIS A   6      22.632  37.009 -11.639  0.00  0.00    +0.075 C 
BRANCH  18  19
ATOM     19  CG  HIS A   6      22.414  38.398 -11.156  0.00  0.00    +0.082 A 
ATOM     20  CD2 HIS A   6      21.442  38.926 -10.380  0.00  0.00    +0.115 A 
ATOM     21  NE2 HIS A   6      21.760  40.245 -10.188  0.00  0.00    -0.221 NA
ATOM     22  CE1 HIS A   6      22.907  40.510 -10.791  0.00  0.00    +0.199 A 
ATOM     23  ND1 HIS A   6      23.320  39.410 -11.385  0.00  0.00    -0.227 NA
ENDBRANCH  18  19
ENDBRANCH  15  18
ENDBRANCH  13  15
ENDBRANCH  10  11
BRANCH  10  24
ATOM     24  CB  ILE A   5      27.434  38.199 -10.599  0.00  0.00    +0.027 C 
ATOM     25  CG2 ILE A   5      26.632  38.880  -9.446  0.00  0.00    +0.002 C 
BRANCH  24  26
ATOM     26  CG1 ILE A   5      28.909  38.597 -10.550  0.00  0.00    +0.002 C 
ATOM     27  CD1 ILE A   5      29.221  39.828 -11.366  0.00  0.00    +0.000 C 
ENDBRANCH  24  26
ENDBRANCH  10  24
ENDBRANCH   8  10
ENDBRANCH   5   6
BRANCH   5  28
ATOM     28  CB  GLN A   4      29.451  34.162 -13.722  0.00  0.00    +0.039 C 
BRANCH  28  29
ATOM     29  CG  GLN A   4      29.826  33.671 -15.130  0.00  0.00    +0.087 C 
BRANCH  29  30
ATOM     30  CD  GLN A   4      31.325  33.851 -15.474  0.00  0.00    +0.219 C 
ATOM     31  OE1 GLN A   4      31.918  34.888 -15.184  0.00  0.00    -0.275 OA
ATOM     32  NE2 GLN A   4      31.923  32.836 -16.095  0.00  0.00    -0.329 N 
ATOM     33 HE21 GLN A   4      31.385  31.976 -16.322  0.00  0.00    +0.145 HD
ATOM     34 HE22 GLN A   4      32.928  32.904 -16.353  0.00  0.00    +0.145 HD
ENDBRANCH  29  30
ENDBRANCH  28  29
ENDBRANCH   5  28
ENDBRANCH   3   5
BRANCH   1  35
ATOM     35  CA  LEU A   3      25.362  36.086 -15.588  0.00  0.00    +0.149 C 
BRANCH  35  38
ATOM     36  C   ILE A   2      26.120  38.210 -14.690  0.00  0.00    +0.241 C 
ATOM     37  O   ILE A   2      25.573  37.998 -13.608  0.00  0.00    -0.273 OA
ATOM     38  N   LEU A   3      26.117  37.335 -15.694  0.00  0.00    -0.297 N 
ATOM     39  H   LEU A   3      26.655  37.541 -16.560  0.00  0.00    +0.150 HD
BRANCH  36  40
ATOM     40  CA  ILE A   2      26.893  39.511 -14.909  0.00  0.00    +0.148 C 
BRANCH  40  43
ATOM     41  C   GLU A   1      29.062  38.462 -15.060  0.00  0.00    +0.238 C 
ATOM     42  O   GLU A   1      28.921  37.901 -13.970  0.00  0.00    -0.274 OA
ATOM     43  N   ILE A   2      28.139  39.246 -15.604  0.00  0.00    -0.297 N 
ATOM     44  H   ILE A   2      28.310  39.674 -16.536  0.00  0.00    +0.150 HD
BRANCH  41  45
ATOM     45  CA  GLU A   1      30.327  38.285 -15.864  0.00  0.00    +0.145 C 
BRANCH  45  46
ATOM     46  N   GLU A   1      30.021  37.981 -17.264  0.00  0.00    -0.238 NA
ATOM     47  H   GLU A   1      30.436  38.561 -18.021  0.00  0.00    +0.142 HD
ENDBRANCH  45  46
BRANCH  45  48
ATOM     48  CB  GLU A   1      31.173  39.542 -15.730  0.00  0.00    +0.038 C 
BRANCH  48  49
ATOM     49  CG  GLU A   1      32.600  39.330 -16.146  0.00  0.00    +0.116 C 
BRANCH  49  50
ATOM     50  CD  GLU A   1      33.463  40.567 -15.952  0.00  0.00    +0.365 C 
ATOM     51  OE2 GLU A   1      32.934  41.620 -15.508  0.00  0.00    -0.246 OA
ATOM     52  OE1 GLU A   1      34.675  40.476 -16.268  0.00  0.00    -0.246 OA
ENDBRANCH  49  50
ENDBRANCH  48  49
ENDBRANCH  45  48
ENDBRANCH  41  45
ENDBRANCH  40  43
BRANCH  40  53
ATOM     53  CB  ILE A   2      26.038  40.561 -15.653  0.00  0.00    +0.027 C 
ATOM     54  CG2 ILE A   2      24.635  40.660 -15.030  0.00  0.00    +0.002 C 
BRANCH  53  55
ATOM     55  CG1 ILE A   2      26.735  41.922 -15.602  0.00  0.00    +0.002 C 
ATOM     56  CD1 ILE A   2      26.257  42.905 -16.651  0.00  0.00    +0.000 C 
ENDBRANCH  53  55
ENDBRANCH  40  53
ENDBRANCH  36  40
ENDBRANCH  35  38
BRANCH  35  57
ATOM     57  CB  LEU A   3      25.220  35.417 -16.955  0.00  0.00    +0.029 C 
BRANCH  57  58
ATOM     58  CG  LEU A   3      24.318  36.069 -18.013  0.00  0.00    +0.002 C 
ATOM     59  CD2 LEU A   3      22.812  35.836 -17.701  0.00  0.00    +0.000 C 
ATOM     60  CD1 LEU A   3      24.710  35.527 -19.392  0.00  0.00    +0.000 C 
ENDBRANCH  57  58
ENDBRANCH  35  57
ENDBRANCH   1  35
TORSDOF 26
REMARK  Name = ../refined-set-2016/3hu3/3hu3_pocket.pdb
REMARK  238 active torsions:
REMARK  status: ('A' for Active; 'I' for Inactive)
REMARK    1  A    between atoms: _1  and  _3
REMARK    2  A    between atoms: _3  and  _4
REMARK    3  A    between atoms: _3  and  _6
REMARK    4  A    between atoms: _9  and  _11
REMARK    5  A    between atoms: _11  and  _12
REMARK    6  A    between atoms: _11  and  _14
REMARK    7  A    between atoms: _14  and  _15
REMARK    8  A    between atoms: _20  and  _21
REMARK    9  A    between atoms: _23  and  _25
REMARK   10  A    between atoms: _25  and  _26
REMARK   11  A    between atoms: _25  and  _28
REMARK   12  A    between atoms: _28  and  _29
REMARK   13  A    between atoms: _32  and  _34
REMARK   14  A    between atoms: _34  and  _35
REMARK   15  A    between atoms: _34  and  _37
REMARK   16  A    between atoms: _37  and  _38
REMARK   17  A    between atoms: _41  and  _43
REMARK   18  A    between atoms: _43  and  _44
REMARK   19  A    between atoms: _43  and  _46
REMARK   20  A    between atoms: _46  and  _47
REMARK   21  A    between atoms: _50  and  _52
REMARK   22  A    between atoms: _52  and  _53
REMARK   23  A    between atoms: _55  and  _57
REMARK   24  A    between atoms: _57  and  _58
REMARK   25  A    between atoms: _60  and  _62
REMARK   26  A    between atoms: _62  and  _63
REMARK   27  A    between atoms: _62  and  _65
REMARK   28  A    between atoms: _67  and  _69
REMARK   29  A    between atoms: _69  and  _70
REMARK   30  A    between atoms: _69  and  _72
REMARK   31  A    between atoms: _72  and  _73
REMARK   32  A    between atoms: _73  and  _74
REMARK   33  A    between atoms: _74  and  _75
REMARK   34  A    between atoms: _84  and  _86
REMARK   35  A    between atoms: _86  and  _87
REMARK   36  A    between atoms: _86  and  _89
REMARK   37  A    between atoms: _89  and  _90
REMARK   38  A    between atoms: _90  and  _91
REMARK   39  A    between atoms: _96  and  _98
REMARK   40  A    between atoms: _98  and  _99
REMARK   41  A    between atoms: _98  and  _101
REMARK   42  A    between atoms: _101  and  _102
REMARK   43  A    between atoms: _105  and  _107
REMARK   44  A    between atoms: _107  and  _108
REMARK   45  A    between atoms: _107  and  _110
REMARK   46  A    between atoms: _110  and  _111
REMARK   47  A    between atoms: _114  and  _116
REMARK   48  A    between atoms: _116  and  _117
REMARK   49  A    between atoms: _116  and  _119
REMARK   50  A    between atoms: _119  and  _120
REMARK   51  A    between atoms: _125  and  _126
REMARK   52  A    between atoms: _128  and  _130
REMARK   53  A    between atoms: _130  and  _131
REMARK   54  A    between atoms: _134  and  _135
REMARK   55  A    between atoms: _141  and  _142
REMARK   56  A    between atoms: _147  and  _149
REMARK   57  A    between atoms: _149  and  _150
REMARK   58  A    between atoms: _152  and  _154
REMARK   59  A    between atoms: _154  and  _155
REMARK   60  A    between atoms: _154  and  _157
REMARK   61  A    between atoms: _157  and  _158
REMARK   62  A    between atoms: _161  and  _163
REMARK   63  A    between atoms: _163  and  _164
REMARK   64  A    between atoms: _166  and  _168
REMARK   65  A    between atoms: _168  and  _169
REMARK   66  A    between atoms: _168  and  _171
REMARK   67  A    between atoms: _171  and  _172
REMARK   68  A    between atoms: _172  and  _173
REMARK   69  A    between atoms: _173  and  _174
REMARK   70  A    between atoms: _174  and  _175
REMARK   71  A    between atoms: _179  and  _181
REMARK   72  A    between atoms: _181  and  _182
REMARK   73  A    between atoms: _181  and  _184
REMARK   74  A    between atoms: _184  and  _185
REMARK   75  A    between atoms: _188  and  _190
REMARK   76  A    between atoms: _190  and  _191
REMARK   77  A    between atoms: _190  and  _193
REMARK   78  A    between atoms: _193  and  _194
REMARK   79  A    between atoms: _197  and  _199
REMARK   80  A    between atoms: _199  and  _200
REMARK   81  A    between atoms: _199  and  _202
REMARK   82  A    between atoms: _202  and  _203
REMARK   83  A    between atoms: _206  and  _208
REMARK   84  A    between atoms: _208  and  _209
REMARK   85  A    between atoms: _212  and  _214
REMARK   86  A    between atoms: _214  and  _215
REMARK   87  A    between atoms: _214  and  _217
REMARK   88  A    between atoms: _217  and  _218
REMARK   89  A    between atoms: _218  and  _219
REMARK   90  A    between atoms: _219  and  _220
REMARK   91  A    between atoms: _229  and  _231
REMARK   92  A    between atoms: _231  and  _232
REMARK   93  A    between atoms: _235  and  _237
REMARK   94  A    between atoms: _237  and  _238
REMARK   95  A    between atoms: _237  and  _240
REMARK   96  A    between atoms: _240  and  _241
REMARK   97  A    between atoms: _247  and  _249
REMARK   98  A    between atoms: _249  and  _250
REMARK   99  A    between atoms: _249  and  _252
REMARK  100  A    between atoms: _252  and  _253
REMARK  101  A    between atoms: _256  and  _258
REMARK  102  A    between atoms: _258  and  _259
REMARK  103  A    between atoms: _258  and  _261
REMARK  104  A    between atoms: _261  and  _262
REMARK  105  A    between atoms: _262  and  _263
REMARK  106  A    between atoms: _266  and  _268
REMARK  107  A    between atoms: _268  and  _269
REMARK  108  A    between atoms: _268  and  _271
REMARK  109  A    between atoms: _271  and  _272
REMARK  110  A    between atoms: _275  and  _277
REMARK  111  A    between atoms: _277  and  _278
REMARK  112  A    between atoms: _281  and  _283
REMARK  113  A    between atoms: _283  and  _284
REMARK  114  A    between atoms: _283  and  _286
REMARK  115  A    between atoms: _286  and  _287
REMARK  116  A    between atoms: _290  and  _292
REMARK  117  A    between atoms: _292  and  _293
REMARK  118  A    between atoms: _292  and  _295
REMARK  119  A    between atoms: _295  and  _296
REMARK  120  A    between atoms: _301  and  _303
REMARK  121  A    between atoms: _303  and  _304
REMARK  122  A    between atoms: _303  and  _306
REMARK  123  A    between atoms: _306  and  _307
REMARK  124  A    between atoms: _307  and  _308
REMARK  125  A    between atoms: _308  and  _309
REMARK  126  A    between atoms: _318  and  _320
REMARK  127  A    between atoms: _320  and  _321
REMARK  128  A    between atoms: _320  and  _323
REMARK  129  A    between atoms: _323  and  _324
REMARK  130  A    between atoms: _327  and  _329
REMARK  131  A    between atoms: _329  and  _330
REMARK  132  A    between atoms: _333  and  _334
REMARK  133  A    between atoms: _339  and  _341
REMARK  134  A    between atoms: _341  and  _342
REMARK  135  A    between atoms: _344  and  _346
REMARK  136  A    between atoms: _346  and  _347
REMARK  137  A    between atoms: _346  and  _349
REMARK  138  A    between atoms: _349  and  _350
REMARK  139  A    between atoms: _350  and  _351
REMARK  140  A    between atoms: _351  and  _352
REMARK  141  A    between atoms: _361  and  _363
REMARK  142  A    between atoms: _363  and  _364
REMARK  143  A    between atoms: _363  and  _366
REMARK  144  A    between atoms: _366  and  _367
REMARK  145  A    between atoms: _367  and  _368
REMARK  146  A    between atoms: _371  and  _373
REMARK  147  A    between atoms: _373  and  _374
REMARK  148  A    between atoms: _373  and  _376
REMARK  149  A    between atoms: _376  and  _377
REMARK  150  A    between atoms: _380  and  _382
REMARK  151  A    between atoms: _382  and  _383
REMARK  152  A    between atoms: _382  and  _385
REMARK  153  A    between atoms: _385  and  _386
REMARK  154  A    between atoms: _389  and  _391
REMARK  155  A    between atoms: _391  and  _392
REMARK  156  A    between atoms: _391  and  _394
REMARK  157  A    between atoms: _394  and  _395
REMARK  158  A    between atoms: _395  and  _396
REMARK  159  A    between atoms: _401  and  _403
REMARK  160  A    between atoms: _403  and  _404
REMARK  161  A    between atoms: _403  and  _406
REMARK  162  A    between atoms: _406  and  _407
REMARK  163  A    between atoms: _410  and  _412
REMARK  164  A    between atoms: _412  and  _413
REMARK  165  A    between atoms: _412  and  _415
REMARK  166  A    between atoms: _415  and  _416
REMARK  167  A    between atoms: _421  and  _423
REMARK  168  A    between atoms: _423  and  _424
REMARK  169  A    between atoms: _423  and  _426
REMARK  170  A    between atoms: _429  and  _431
REMARK  171  A    between atoms: _431  and  _432
REMARK  172  A    between atoms: _434  and  _436
REMARK  173  A    between atoms: _436  and  _437
REMARK  174  A    between atoms: _440  and  _442
REMARK  175  A    between atoms: _442  and  _443
REMARK  176  A    between atoms: _442  and  _445
REMARK  177  A    between atoms: _445  and  _446
REMARK  178  A    between atoms: _449  and  _451
REMARK  179  A    between atoms: _451  and  _452
REMARK  180  A    between atoms: _451  and  _454
REMARK  181  A    between atoms: _454  and  _455
REMARK  182  A    between atoms: _458  and  _460
REMARK  183  A    between atoms: _460  and  _461
REMARK  184  A    between atoms: _464  and  _466
REMARK  185  A    between atoms: _466  and  _467
REMARK  186  A    between atoms: _470  and  _472
REMARK  187  A    between atoms: _472  and  _473
REMARK  188  A    between atoms: _472  and  _475
REMARK  189  A    between atoms: _475  and  _476
REMARK  190  A    between atoms: _478  and  _480
REMARK  191  A    between atoms: _480  and  _481
REMARK  192  A    between atoms: _480  and  _483
REMARK  193  A    between atoms: _483  and  _484
REMARK  194  A    between atoms: _484  and  _485
REMARK  195  A    between atoms: _485  and  _486
REMARK  196  A    between atoms: _486  and  _487
REMARK  197  A    between atoms: _491  and  _493
REMARK  198  A    between atoms: _493  and  _494
REMARK  199  A    between atoms: _493  and  _496
REMARK  200  A    between atoms: _496  and  _497
REMARK  201  A    between atoms: _497  and  _498
REMARK  202  A    between atoms: _498  and  _499
REMARK  203  A    between atoms: _508  and  _510
REMARK  204  A    between atoms: _510  and  _511
REMARK  205  A    between atoms: _510  and  _513
REMARK  206  A    between atoms: _513  and  _514
REMARK  207  A    between atoms: _517  and  _519
REMARK  208  A    between atoms: _519  and  _520
REMARK  209  A    between atoms: _519  and  _522
REMARK  210  A    between atoms: _522  and  _523
REMARK  211  A    between atoms: _523  and  _524
REMARK  212  A    between atoms: _530  and  _531
REMARK  213  A    between atoms: _536  and  _538
REMARK  214  A    between atoms: _538  and  _539
REMARK  215  A    between atoms: _542  and  _544
REMARK  216  A    between atoms: _544  and  _545
REMARK  217  A    between atoms: _544  and  _547
REMARK  218  A    between atoms: _547  and  _548
REMARK  219  A    between atoms: _548  and  _549
REMARK  220  A    between atoms: _549  and  _550
REMARK  221  A    between atoms: _559  and  _561
REMARK  222  A    between atoms: _561  and  _562
REMARK  223  A    between atoms: _561  and  _564
REMARK  224  A    between atoms: _564  and  _565
REMARK  225  A    between atoms: _565  and  _566
REMARK  226  A    between atoms: _566  and  _567
REMARK  227  A    between atoms: _576  and  _578
REMARK  228  A    between atoms: _578  and  _579
REMARK  229  A    between atoms: _578  and  _581
REMARK  230  A    between atoms: _581  and  _582
REMARK  231  A    between atoms: _588  and  _590
REMARK  232  A    between atoms: _590  and  _591
REMARK  233  A    between atoms: _593  and  _595
REMARK  234  A    between atoms: _595  and  _596
REMARK  235  A    between atoms: _595  and  _598
REMARK  236  A    between atoms: _598  and  _599
REMARK  237  A    between atoms: _599  and  _600
REMARK  238  A    between atoms: _600  and  _601
REMARK                            x       y       z     vdW  Elec       q    Type
REMARK                         _______ _______ _______ _____ _____    ______ ____
ROOT
ATOM      1  CA  ASP A   4      17.589  42.516 -17.765  0.00  0.00    +0.160 C 
ENDROOT
BRANCH   1   4
ATOM      2  C   ALA A   3      18.047  43.315 -15.486  0.00  0.00    +0.241 C 
ATOM      3  O   ALA A   3      17.327  42.473 -14.968  0.00  0.00    -0.273 OA
ATOM      4  N   ASP A   4      18.238  43.425 -16.807  0.00  0.00    -0.297 N 
ATOM      5  H   ASP A   4      18.863  44.175 -17.166  0.00  0.00    +0.150 HD
BRANCH   2   6
ATOM      6  CA  ALA A   3      18.767  44.315 -14.581  0.00  0.00    +0.149 C 
ATOM      7  CB  ALA A   3      17.921  45.591 -14.392  0.00  0.00    +0.031 C 
BRANCH   6  10
ATOM      8  C   GLY A   2      21.024  43.653 -15.142  0.00  0.00    +0.243 C 
ATOM      9  O   GLY A   2      20.794  42.492 -14.807  0.00  0.00    -0.273 OA
ATOM     10  N   ALA A   3      20.100  44.615 -15.077  0.00  0.00    -0.297 N 
ATOM     11  H   ALA A   3      20.335  45.581 -15.382  0.00  0.00    +0.150 HD
BRANCH   8  12
ATOM     12  CA  GLY A   2      22.399  44.049 -15.638  0.00  0.00    +0.176 C 
BRANCH  12  14
ATOM     13  C   VAL A   1      21.686  44.579 -17.963  0.00  0.00    +0.238 C 
ATOM     14  N   GLY A   2      22.457  44.821 -16.903  0.00  0.00    -0.296 N 
ATOM     15  H   GLY A   2      23.143  45.600 -16.967  0.00  0.00    +0.150 HD
ATOM     16  O   VAL A   1      20.888  43.674 -17.995  0.00  0.00    -0.274 OA
BRANCH  13  17
ATOM     17  CA  VAL A   1      21.851  45.514 -19.168  0.00  0.00    +0.145 C 
BRANCH  17  18
ATOM     18  CB  VAL A   1      21.524  46.970 -18.780  0.00  0.00    +0.025 C 
ATOM     19  CG2 VAL A   1      20.122  47.078 -18.161  0.00  0.00    +0.002 C 
ATOM     20  CG1 VAL A   1      21.654  47.880 -20.004  0.00  0.00    +0.002 C 
ENDBRANCH  17  18
BRANCH  17  21
ATOM     21  N   VAL A   1      21.052  45.052 -20.313  0.00  0.00    -0.238 NA
ATOM     22  H   VAL A   1      20.034  45.262 -20.349  0.00  0.00    +0.142 HD
ENDBRANCH  17  21
ENDBRANCH  13  17
ENDBRANCH  12  14
ENDBRANCH   8  12
ENDBRANCH   6  10
ENDBRANCH   2   6
ENDBRANCH   1   4
BRANCH   1  23
ATOM     23  C   ASP A   4      18.174  41.127 -17.644  0.00  0.00    +0.241 C 
ATOM     24  N   LEU A   5      19.479  41.028 -17.359  0.00  0.00    -0.297 N 
ATOM     25  H   LEU A   5      20.059  41.891 -17.335  0.00  0.00    +0.150 HD
ATOM     26  O   ASP A   4      17.463  40.170 -17.830  0.00  0.00    -0.273 OA
BRANCH  24  27
ATOM     27  CA  LEU A   5      20.115  39.729 -17.078  0.00  0.00    +0.149 C 
BRANCH  27  28
ATOM     28  C   LEU A   5      19.666  39.054 -15.767  0.00  0.00    +0.241 C 
ATOM     29  N   ALA A   6      19.516  39.824 -14.688  0.00  0.00    -0.297 N 
ATOM     30  H   ALA A   6      19.790  40.826 -14.737  0.00  0.00    +0.150 HD
ATOM     31  O   LEU A   5      19.458  37.850 -15.746  0.00  0.00    -0.273 OA
BRANCH  29  32
ATOM     32  CA  ALA A   6      18.974  39.289 -13.435  0.00  0.00    +0.149 C 
ATOM     33  CB  ALA A   6      19.007  40.342 -12.336  0.00  0.00    +0.031 C 
BRANCH  32  34
ATOM     34  C   ALA A   6      17.545  38.793 -13.638  0.00  0.00    +0.241 C 
ATOM     35  O   ALA A   6      17.196  37.711 -13.181  0.00  0.00    -0.273 OA
ATOM     36  N   ALA A   7      16.739  39.589 -14.344  0.00  0.00    -0.298 N 
ATOM     37  H   ALA A   7      17.099  40.513 -14.657  0.00  0.00    +0.150 HD
BRANCH  36  38
ATOM     38  CA  ALA A   7      15.351  39.209 -14.700  0.00  0.00    +0.137 C 
ATOM     39  CB  ALA A   7      14.626  40.360 -15.426  0.00  0.00    +0.030 C 
BRANCH  38  40
ATOM     40  C   ALA A   7      15.344  37.941 -15.560  0.00  0.00    +0.227 C 
ATOM     41  O   ALA A   7      14.575  37.033 -15.297  0.00  0.00    -0.286 OA
ENDBRANCH  38  40
ENDBRANCH  36  38
ENDBRANCH  32  34
ENDBRANCH  29  32
ENDBRANCH  27  28
BRANCH  27  42
ATOM     42  CB  LEU A   5      21.641  39.808 -17.169  0.00  0.00    +0.029 C 
BRANCH  42  43
ATOM     43  CG  LEU A   5      22.094  40.304 -18.552  0.00  0.00    +0.002 C 
ATOM     44  CD2 LEU A   5      23.535  40.767 -18.550  0.00  0.00    +0.000 C 
ATOM     45  CD1 LEU A   5      21.846  39.222 -19.627  0.00  0.00    +0.000 C 
ENDBRANCH  42  43
ENDBRANCH  27  42
ENDBRANCH  24  27
ENDBRANCH   1  23
BRANCH   1  46
ATOM     46  CB  ASP A   4      17.754  42.959 -19.237  0.00  0.00    +0.143 C 
BRANCH  46  47
ATOM     47  CG  ASP A   4      17.390  44.408 -19.466  0.00  0.00    +0.367 C 
ATOM     48  OD2 ASP A   4      16.295  44.818 -19.090  0.00  0.00    -0.246 OA
ATOM     49  OD1 ASP A   4      18.210  45.133 -20.055  0.00  0.00    -0.246 OA
ENDBRANCH  46  47
ENDBRANCH   1  46
TORSDOF 19
REMARK  Name = ../refined-set-2016/3hu3/3hu3_pocket.pdb
REMARK  238 active torsions:
REMARK  status: ('A' for Active; 'I' for Inactive)
REMARK    1  A    between atoms: _1  and  _3
REMARK    2  A    between atoms: _3  and  _4
REMARK    3  A    between atoms: _3  and  _6
REMARK    4  A    between atoms: _9  and  _11
REMARK    5  A    between atoms: _11  and  _12
REMARK    6  A    between atoms: _11  and  _14
REMARK    7  A    between atoms: _14  and  _15
REMARK    8  A    between atoms: _20  and  _21
REMARK    9  A    between atoms: _23  and  _25
REMARK   10  A    between atoms: _25  and  _26
REMARK   11  A    between atoms: _25  and  _28
REMARK   12  A    between atoms: _28  and  _29
REMARK   13  A    between atoms: _32  and  _34
REMARK   14  A    between atoms: _34  and  _35
REMARK   15  A    between atoms: _34  and  _37
REMARK   16  A    between atoms: _37  and  _38
REMARK   17  A    between atoms: _41  and  _43
REMARK   18  A    between atoms: _43  and  _44
REMARK   19  A    between atoms: _43  and  _46
REMARK   20  A    between atoms: _46  and  _47
REMARK   21  A    between atoms: _50  and  _52
REMARK   22  A    between atoms: _52  and  _53
REMARK   23  A    between atoms: _55  and  _57
REMARK   24  A    between atoms: _57  and  _58
REMARK   25  A    between atoms: _60  and  _62
REMARK   26  A    between atoms: _62  and  _63
REMARK   27  A    between atoms: _62  and  _65
REMARK   28  A    between atoms: _67  and  _69
REMARK   29  A    between atoms: _69  and  _70
REMARK   30  A    between atoms: _69  and  _72
REMARK   31  A    between atoms: _72  and  _73
REMARK   32  A    between atoms: _73  and  _74
REMARK   33  A    between atoms: _74  and  _75
REMARK   34  A    between atoms: _84  and  _86
REMARK   35  A    between atoms: _86  and  _87
REMARK   36  A    between atoms: _86  and  _89
REMARK   37  A    between atoms: _89  and  _90
REMARK   38  A    between atoms: _90  and  _91
REMARK   39  A    between atoms: _96  and  _98
REMARK   40  A    between atoms: _98  and  _99
REMARK   41  A    between atoms: _98  and  _101
REMARK   42  A    between atoms: _101  and  _102
REMARK   43  A    between atoms: _105  and  _107
REMARK   44  A    between atoms: _107  and  _108
REMARK   45  A    between atoms: _107  and  _110
REMARK   46  A    between atoms: _110  and  _111
REMARK   47  A    between atoms: _114  and  _116
REMARK   48  A    between atoms: _116  and  _117
REMARK   49  A    between atoms: _116  and  _119
REMARK   50  A    between atoms: _119  and  _120
REMARK   51  A    between atoms: _125  and  _126
REMARK   52  A    between atoms: _128  and  _130
REMARK   53  A    between atoms: _130  and  _131
REMARK   54  A    between atoms: _134  and  _135
REMARK   55  A    between atoms: _141  and  _142
REMARK   56  A    between atoms: _147  and  _149
REMARK   57  A    between atoms: _149  and  _150
REMARK   58  A    between atoms: _152  and  _154
REMARK   59  A    between atoms: _154  and  _155
REMARK   60  A    between atoms: _154  and  _157
REMARK   61  A    between atoms: _157  and  _158
REMARK   62  A    between atoms: _161  and  _163
REMARK   63  A    between atoms: _163  and  _164
REMARK   64  A    between atoms: _166  and  _168
REMARK   65  A    between atoms: _168  and  _169
REMARK   66  A    between atoms: _168  and  _171
REMARK   67  A    between atoms: _171  and  _172
REMARK   68  A    between atoms: _172  and  _173
REMARK   69  A    between atoms: _173  and  _174
REMARK   70  A    between atoms: _174  and  _175
REMARK   71  A    between atoms: _179  and  _181
REMARK   72  A    between atoms: _181  and  _182
REMARK   73  A    between atoms: _181  and  _184
REMARK   74  A    between atoms: _184  and  _185
REMARK   75  A    between atoms: _188  and  _190
REMARK   76  A    between atoms: _190  and  _191
REMARK   77  A    between atoms: _190  and  _193
REMARK   78  A    between atoms: _193  and  _194
REMARK   79  A    between atoms: _197  and  _199
REMARK   80  A    between atoms: _199  and  _200
REMARK   81  A    between atoms: _199  and  _202
REMARK   82  A    between atoms: _202  and  _203
REMARK   83  A    between atoms: _206  and  _208
REMARK   84  A    between atoms: _208  and  _209
REMARK   85  A    between atoms: _212  and  _214
REMARK   86  A    between atoms: _214  and  _215
REMARK   87  A    between atoms: _214  and  _217
REMARK   88  A    between atoms: _217  and  _218
REMARK   89  A    between atoms: _218  and  _219
REMARK   90  A    between atoms: _219  and  _220
REMARK   91  A    between atoms: _229  and  _231
REMARK   92  A    between atoms: _231  and  _232
REMARK   93  A    between atoms: _235  and  _237
REMARK   94  A    between atoms: _237  and  _238
REMARK   95  A    between atoms: _237  and  _240
REMARK   96  A    between atoms: _240  and  _241
REMARK   97  A    between atoms: _247  and  _249
REMARK   98  A    between atoms: _249  and  _250
REMARK   99  A    between atoms: _249  and  _252
REMARK  100  A    between atoms: _252  and  _253
REMARK  101  A    between atoms: _256  and  _258
REMARK  102  A    between atoms: _258  and  _259
REMARK  103  A    between atoms: _258  and  _261
REMARK  104  A    between atoms: _261  and  _262
REMARK  105  A    between atoms: _262  and  _263
REMARK  106  A    between atoms: _266  and  _268
REMARK  107  A    between atoms: _268  and  _269
REMARK  108  A    between atoms: _268  and  _271
REMARK  109  A    between atoms: _271  and  _272
REMARK  110  A    between atoms: _275  and  _277
REMARK  111  A    between atoms: _277  and  _278
REMARK  112  A    between atoms: _281  and  _283
REMARK  113  A    between atoms: _283  and  _284
REMARK  114  A    between atoms: _283  and  _286
REMARK  115  A    between atoms: _286  and  _287
REMARK  116  A    between atoms: _290  and  _292
REMARK  117  A    between atoms: _292  and  _293
REMARK  118  A    between atoms: _292  and  _295
REMARK  119  A    between atoms: _295  and  _296
REMARK  120  A    between atoms: _301  and  _303
REMARK  121  A    between atoms: _303  and  _304
REMARK  122  A    between atoms: _303  and  _306
REMARK  123  A    between atoms: _306  and  _307
REMARK  124  A    between atoms: _307  and  _308
REMARK  125  A    between atoms: _308  and  _309
REMARK  126  A    between atoms: _318  and  _320
REMARK  127  A    between atoms: _320  and  _321
REMARK  128  A    between atoms: _320  and  _323
REMARK  129  A    between atoms: _323  and  _324
REMARK  130  A    between atoms: _327  and  _329
REMARK  131  A    between atoms: _329  and  _330
REMARK  132  A    between atoms: _333  and  _334
REMARK  133  A    between atoms: _339  and  _341
REMARK  134  A    between atoms: _341  and  _342
REMARK  135  A    between atoms: _344  and  _346
REMARK  136  A    between atoms: _346  and  _347
REMARK  137  A    between atoms: _346  and  _349
REMARK  138  A    between atoms: _349  and  _350
REMARK  139  A    between atoms: _350  and  _351
REMARK  140  A    between atoms: _351  and  _352
REMARK  141  A    between atoms: _361  and  _363
REMARK  142  A    between atoms: _363  and  _364
REMARK  143  A    between atoms: _363  and  _366
REMARK  144  A    between atoms: _366  and  _367
REMARK  145  A    between atoms: _367  and  _368
REMARK  146  A    between atoms: _371  and  _373
REMARK  147  A    between atoms: _373  and  _374
REMARK  148  A    between atoms: _373  and  _376
REMARK  149  A    between atoms: _376  and  _377
REMARK  150  A    between atoms: _380  and  _382
REMARK  151  A    between atoms: _382  and  _383
REMARK  152  A    between atoms: _382  and  _385
REMARK  153  A    between atoms: _385  and  _386
REMARK  154  A    between atoms: _389  and  _391
REMARK  155  A    between atoms: _391  and  _392
REMARK  156  A    between atoms: _391  and  _394
REMARK  157  A    between atoms: _394  and  _395
REMARK  158  A    between atoms: _395  and  _396
REMARK  159  A    between atoms: _401  and  _403
REMARK  160  A    between atoms: _403  and  _404
REMARK  161  A    between atoms: _403  and  _406
REMARK  162  A    between atoms: _406  and  _407
REMARK  163  A    between atoms: _410  and  _412
REMARK  164  A    between atoms: _412  and  _413
REMARK  165  A    between atoms: _412  and  _415
REMARK  166  A    between atoms: _415  and  _416
REMARK  167  A    between atoms: _421  and  _423
REMARK  168  A    between atoms: _423  and  _424
REMARK  169  A    between atoms: _423  and  _426
REMARK  170  A    between atoms: _429  and  _431
REMARK  171  A    between atoms: _431  and  _432
REMARK  172  A    between atoms: _434  and  _436
REMARK  173  A    between atoms: _436  and  _437
REMARK  174  A    between atoms: _440  and  _442
REMARK  175  A    between atoms: _442  and  _443
REMARK  176  A    between atoms: _442  and  _445
REMARK  177  A    between atoms: _445  and  _446
REMARK  178  A    between atoms: _449  and  _451
REMARK  179  A    between atoms: _451  and  _452
REMARK  180  A    between atoms: _451  and  _454
REMARK  181  A    between atoms: _454  and  _455
REMARK  182  A    between atoms: _458  and  _460
REMARK  183  A    between atoms: _460  and  _461
REMARK  184  A    between atoms: _464  and  _466
REMARK  185  A    between atoms: _466  and  _467
REMARK  186  A    between atoms: _470  and  _472
REMARK  187  A    between atoms: _472  and  _473
REMARK  188  A    between atoms: _472  and  _475
REMARK  189  A    between atoms: _475  and  _476
REMARK  190  A    between atoms: _478  and  _480
REMARK  191  A    between atoms: _480  and  _481
REMARK  192  A    between atoms: _480  and  _483
REMARK  193  A    between atoms: _483  and  _484
REMARK  194  A    between atoms: _484  and  _485
REMARK  195  A    between atoms: _485  and  _486
REMARK  196  A    between atoms: _486  and  _487
REMARK  197  A    between atoms: _491  and  _493
REMARK  198  A    between atoms: _493  and  _494
REMARK  199  A    between atoms: _493  and  _496
REMARK  200  A    between atoms: _496  and  _497
REMARK  201  A    between atoms: _497  and  _498
REMARK  202  A    between atoms: _498  and  _499
REMARK  203  A    between atoms: _508  and  _510
REMARK  204  A    between atoms: _510  and  _511
REMARK  205  A    between atoms: _510  and  _513
REMARK  206  A    between atoms: _513  and  _514
REMARK  207  A    between atoms: _517  and  _519
REMARK  208  A    between atoms: _519  and  _520
REMARK  209  A    between atoms: _519  and  _522
REMARK  210  A    between atoms: _522  and  _523
REMARK  211  A    between atoms: _523  and  _524
REMARK  212  A    between atoms: _530  and  _531
REMARK  213  A    between atoms: _536  and  _538
REMARK  214  A    between atoms: _538  and  _539
REMARK  215  A    between atoms: _542  and  _544
REMARK  216  A    between atoms: _544  and  _545
REMARK  217  A    between atoms: _544  and  _547
REMARK  218  A    between atoms: _547  and  _548
REMARK  219  A    between atoms: _548  and  _549
REMARK  220  A    between atoms: _549  and  _550
REMARK  221  A    between atoms: _559  and  _561
REMARK  222  A    between atoms: _561  and  _562
REMARK  223  A    between atoms: _561  and  _564
REMARK  224  A    between atoms: _564  and  _565
REMARK  225  A    between atoms: _565  and  _566
REMARK  226  A    between atoms: _566  and  _567
REMARK  227  A    between atoms: _576  and  _578
REMARK  228  A    between atoms: _578  and  _579
REMARK  229  A    between atoms: _578  and  _581
REMARK  230  A    between atoms: _581  and  _582
REMARK  231  A    between atoms: _588  and  _590
REMARK  232  A    between atoms: _590  and  _591
REMARK  233  A    between atoms: _593  and  _595
REMARK  234  A    between atoms: _595  and  _596
REMARK  235  A    between atoms: _595  and  _598
REMARK  236  A    between atoms: _598  and  _599
REMARK  237  A    between atoms: _599  and  _600
REMARK  238  A    between atoms: _600  and  _601
REMARK                            x       y       z     vdW  Elec       q    Type
REMARK                         _______ _______ _______ _____ _____    ______ ____
ROOT
ATOM      1  CA  SER A   1      14.929  34.743 -12.411  0.00  0.00    +0.163 C 
ENDROOT
BRANCH   1   2
ATOM      2  N   SER A   1      16.070  34.998 -13.280  0.00  0.00    -0.237 NA
ATOM      3  H   SER A   1      16.344  35.980 -13.485  0.00  0.00    +0.142 HD
ENDBRANCH   1   2
BRANCH   1   4
ATOM      4  CB  SER A   1      13.822  34.033 -13.175  0.00  0.00    +0.227 C 
ATOM      5  OG  SER A   1      13.152  33.153 -12.645  0.00  0.00    -0.287 OA
ENDBRANCH   1   4
BRANCH   1   6
ATOM      6  C   SER A   1      14.407  36.051 -11.796  0.00  0.00    +0.162 C 
BRANCH   6   7
ATOM      7  O   SER A   1      15.479  36.708 -11.136  0.00  0.00    -0.380 OA
ATOM      8  H   SER A   1      16.195  36.907 -11.790  0.00  0.00    +0.211 HD
ENDBRANCH   6   7
ENDBRANCH   1   6
TORSDOF 4
REMARK  Name = ../refined-set-2016/3hu3/3hu3_pocket.pdb
REMARK  238 active torsions:
REMARK  status: ('A' for Active; 'I' for Inactive)
REMARK    1  A    between atoms: _1  and  _3
REMARK    2  A    between atoms: _3  and  _4
REMARK    3  A    between atoms: _3  and  _6
REMARK    4  A    between atoms: _9  and  _11
REMARK    5  A    between atoms: _11  and  _12
REMARK    6  A    between atoms: _11  and  _14
REMARK    7  A    between atoms: _14  and  _15
REMARK    8  A    between atoms: _20  and  _21
REMARK    9  A    between atoms: _23  and  _25
REMARK   10  A    between atoms: _25  and  _26
REMARK   11  A    between atoms: _25  and  _28
REMARK   12  A    between atoms: _28  and  _29
REMARK   13  A    between atoms: _32  and  _34
REMARK   14  A    between atoms: _34  and  _35
REMARK   15  A    between atoms: _34  and  _37
REMARK   16  A    between atoms: _37  and  _38
REMARK   17  A    between atoms: _41  and  _43
REMARK   18  A    between atoms: _43  and  _44
REMARK   19  A    between atoms: _43  and  _46
REMARK   20  A    between atoms: _46  and  _47
REMARK   21  A    between atoms: _50  and  _52
REMARK   22  A    between atoms: _52  and  _53
REMARK   23  A    between atoms: _55  and  _57
REMARK   24  A    between atoms: _57  and  _58
REMARK   25  A    between atoms: _60  and  _62
REMARK   26  A    between atoms: _62  and  _63
REMARK   27  A    between atoms: _62  and  _65
REMARK   28  A    between atoms: _67  and  _69
REMARK   29  A    between atoms: _69  and  _70
REMARK   30  A    between atoms: _69  and  _72
REMARK   31  A    between atoms: _72  and  _73
REMARK   32  A    between atoms: _73  and  _74
REMARK   33  A    between atoms: _74  and  _75
REMARK   34  A    between atoms: _84  and  _86
REMARK   35  A    between atoms: _86  and  _87
REMARK   36  A    between atoms: _86  and  _89
REMARK   37  A    between atoms: _89  and  _90
REMARK   38  A    between atoms: _90  and  _91
REMARK   39  A    between atoms: _96  and  _98
REMARK   40  A    between atoms: _98  and  _99
REMARK   41  A    between atoms: _98  and  _101
REMARK   42  A    between atoms: _101  and  _102
REMARK   43  A    between atoms: _105  and  _107
REMARK   44  A    between atoms: _107  and  _108
REMARK   45  A    between atoms: _107  and  _110
REMARK   46  A    between atoms: _110  and  _111
REMARK   47  A    between atoms: _114  and  _116
REMARK   48  A    between atoms: _116  and  _117
REMARK   49  A    between atoms: _116  and  _119
REMARK   50  A    between atoms: _119  and  _120
REMARK   51  A    between atoms: _125  and  _126
REMARK   52  A    between atoms: _128  and  _130
REMARK   53  A    between atoms: _130  and  _131
REMARK   54  A    between atoms: _134  and  _135
REMARK   55  A    between atoms: _141  and  _142
REMARK   56  A    between atoms: _147  and  _149
REMARK   57  A    between atoms: _149  and  _150
REMARK   58  A    between atoms: _152  and  _154
REMARK   59  A    between atoms: _154  and  _155
REMARK   60  A    between atoms: _154  and  _157
REMARK   61  A    between atoms: _157  and  _158
REMARK   62  A    between atoms: _161  and  _163
REMARK   63  A    between atoms: _163  and  _164
REMARK   64  A    between atoms: _166  and  _168
REMARK   65  A    between atoms: _168  and  _169
REMARK   66  A    between atoms: _168  and  _171
REMARK   67  A    between atoms: _171  and  _172
REMARK   68  A    between atoms: _172  and  _173
REMARK   69  A    between atoms: _173  and  _174
REMARK   70  A    between atoms: _174  and  _175
REMARK   71  A    between atoms: _179  and  _181
REMARK   72  A    between atoms: _181  and  _182
REMARK   73  A    between atoms: _181  and  _184
REMARK   74  A    between atoms: _184  and  _185
REMARK   75  A    between atoms: _188  and  _190
REMARK   76  A    between atoms: _190  and  _191
REMARK   77  A    between atoms: _190  and  _193
REMARK   78  A    between atoms: _193  and  _194
REMARK   79  A    between atoms: _197  and  _199
REMARK   80  A    between atoms: _199  and  _200
REMARK   81  A    between atoms: _199  and  _202
REMARK   82  A    between atoms: _202  and  _203
REMARK   83  A    between atoms: _206  and  _208
REMARK   84  A    between atoms: _208  and  _209
REMARK   85  A    between atoms: _212  and  _214
REMARK   86  A    between atoms: _214  and  _215
REMARK   87  A    between atoms: _214  and  _217
REMARK   88  A    between atoms: _217  and  _218
REMARK   89  A    between atoms: _218  and  _219
REMARK   90  A    between atoms: _219  and  _220
REMARK   91  A    between atoms: _229  and  _231
REMARK   92  A    between atoms: _231  and  _232
REMARK   93  A    between atoms: _235  and  _237
REMARK   94  A    between atoms: _237  and  _238
REMARK   95  A    between atoms: _237  and  _240
REMARK   96  A    between atoms: _240  and  _241
REMARK   97  A    between atoms: _247  and  _249
REMARK   98  A    between atoms: _249  and  _250
REMARK   99  A    between atoms: _249  and  _252
REMARK  100  A    between atoms: _252  and  _253
REMARK  101  A    between atoms: _256  and  _258
REMARK  102  A    between atoms: _258  and  _259
REMARK  103  A    between atoms: _258  and  _261
REMARK  104  A    between atoms: _261  and  _262
REMARK  105  A    between atoms: _262  and  _263
REMARK  106  A    between atoms: _266  and  _268
REMARK  107  A    between atoms: _268  and  _269
REMARK  108  A    between atoms: _268  and  _271
REMARK  109  A    between atoms: _271  and  _272
REMARK  110  A    between atoms: _275  and  _277
REMARK  111  A    between atoms: _277  and  _278
REMARK  112  A    between atoms: _281  and  _283
REMARK  113  A    between atoms: _283  and  _284
REMARK  114  A    between atoms: _283  and  _286
REMARK  115  A    between atoms: _286  and  _287
REMARK  116  A    between atoms: _290  and  _292
REMARK  117  A    between atoms: _292  and  _293
REMARK  118  A    between atoms: _292  and  _295
REMARK  119  A    between atoms: _295  and  _296
REMARK  120  A    between atoms: _301  and  _303
REMARK  121  A    between atoms: _303  and  _304
REMARK  122  A    between atoms: _303  and  _306
REMARK  123  A    between atoms: _306  and  _307
REMARK  124  A    between atoms: _307  and  _308
REMARK  125  A    between atoms: _308  and  _309
REMARK  126  A    between atoms: _318  and  _320
REMARK  127  A    between atoms: _320  and  _321
REMARK  128  A    between atoms: _320  and  _323
REMARK  129  A    between atoms: _323  and  _324
REMARK  130  A    between atoms: _327  and  _329
REMARK  131  A    between atoms: _329  and  _330
REMARK  132  A    between atoms: _333  and  _334
REMARK  133  A    between atoms: _339  and  _341
REMARK  134  A    between atoms: _341  and  _342
REMARK  135  A    between atoms: _344  and  _346
REMARK  136  A    between atoms: _346  and  _347
REMARK  137  A    between atoms: _346  and  _349
REMARK  138  A    between atoms: _349  and  _350
REMARK  139  A    between atoms: _350  and  _351
REMARK  140  A    between atoms: _351  and  _352
REMARK  141  A    between atoms: _361  and  _363
REMARK  142  A    between atoms: _363  and  _364
REMARK  143  A    between atoms: _363  and  _366
REMARK  144  A    between atoms: _366  and  _367
REMARK  145  A    between atoms: _367  and  _368
REMARK  146  A    between atoms: _371  and  _373
REMARK  147  A    between atoms: _373  and  _374
REMARK  148  A    between atoms: _373  and  _376
REMARK  149  A    between atoms: _376  and  _377
REMARK  150  A    between atoms: _380  and  _382
REMARK  151  A    between atoms: _382  and  _383
REMARK  152  A    between atoms: _382  and  _385
REMARK  153  A    between atoms: _385  and  _386
REMARK  154  A    between atoms: _389  and  _391
REMARK  155  A    between atoms: _391  and  _392
REMARK  156  A    between atoms: _391  and  _394
REMARK  157  A    between atoms: _394  and  _395
REMARK  158  A    between atoms: _395  and  _396
REMARK  159  A    between atoms: _401  and  _403
REMARK  160  A    between atoms: _403  and  _404
REMARK  161  A    between atoms: _403  and  _406
REMARK  162  A    between atoms: _406  and  _407
REMARK  163  A    between atoms: _410  and  _412
REMARK  164  A    between atoms: _412  and  _413
REMARK  165  A    between atoms: _412  and  _415
REMARK  166  A    between atoms: _415  and  _416
REMARK  167  A    between atoms: _421  and  _423
REMARK  168  A    between atoms: _423  and  _424
REMARK  169  A    between atoms: _423  and  _426
REMARK  170  A    between atoms: _429  and  _431
REMARK  171  A    between atoms: _431  and  _432
REMARK  172  A    between atoms: _434  and  _436
REMARK  173  A    between atoms: _436  and  _437
REMARK  174  A    between atoms: _440  and  _442
REMARK  175  A    between atoms: _442  and  _443
REMARK  176  A    between atoms: _442  and  _445
REMARK  177  A    between atoms: _445  and  _446
REMARK  178  A    between atoms: _449  and  _451
REMARK  179  A    between atoms: _451  and  _452
REMARK  180  A    between atoms: _451  and  _454
REMARK  181  A    between atoms: _454  and  _455
REMARK  182  A    between atoms: _458  and  _460
REMARK  183  A    between atoms: _460  and  _461
REMARK  184  A    between atoms: _464  and  _466
REMARK  185  A    between atoms: _466  and  _467
REMARK  186  A    between atoms: _470  and  _472
REMARK  187  A    between atoms: _472  and  _473
REMARK  188  A    between atoms: _472  and  _475
REMARK  189  A    between atoms: _475  and  _476
REMARK  190  A    between atoms: _478  and  _480
REMARK  191  A    between atoms: _480  and  _481
REMARK  192  A    between atoms: _480  and  _483
REMARK  193  A    between atoms: _483  and  _484
REMARK  194  A    between atoms: _484  and  _485
REMARK  195  A    between atoms: _485  and  _486
REMARK  196  A    between atoms: _486  and  _487
REMARK  197  A    between atoms: _491  and  _493
REMARK  198  A    between atoms: _493  and  _494
REMARK  199  A    between atoms: _493  and  _496
REMARK  200  A    between atoms: _496  and  _497
REMARK  201  A    between atoms: _497  and  _498
REMARK  202  A    between atoms: _498  and  _499
REMARK  203  A    between atoms: _508  and  _510
REMARK  204  A    between atoms: _510  and  _511
REMARK  205  A    between atoms: _510  and  _513
REMARK  206  A    between atoms: _513  and  _514
REMARK  207  A    between atoms: _517  and  _519
REMARK  208  A    between atoms: _519  and  _520
REMARK  209  A    between atoms: _519  and  _522
REMARK  210  A    between atoms: _522  and  _523
REMARK  211  A    between atoms: _523  and  _524
REMARK  212  A    between atoms: _530  and  _531
REMARK  213  A    between atoms: _536  and  _538
REMARK  214  A    between atoms: _538  and  _539
REMARK  215  A    between atoms: _542  and  _544
REMARK  216  A    between atoms: _544  and  _545
REMARK  217  A    between atoms: _544  and  _547
REMARK  218  A    between atoms: _547  and  _548
REMARK  219  A    between atoms: _548  and  _549
REMARK  220  A    between atoms: _549  and  _550
REMARK  221  A    between atoms: _559  and  _561
REMARK  222  A    between atoms: _561  and  _562
REMARK  223  A    between atoms: _561  and  _564
REMARK  224  A    between atoms: _564  and  _565
REMARK  225  A    between atoms: _565  and  _566
REMARK  226  A    between atoms: _566  and  _567
REMARK  227  A    between atoms: _576  and  _578
REMARK  228  A    between atoms: _578  and  _579
REMARK  229  A    between atoms: _578  and  _581
REMARK  230  A    between atoms: _581  and  _582
REMARK  231  A    between atoms: _588  and  _590
REMARK  232  A    between atoms: _590  and  _591
REMARK  233  A    between atoms: _593  and  _595
REMARK  234  A    between atoms: _595  and  _596
REMARK  235  A    between atoms: _595  and  _598
REMARK  236  A    between atoms: _598  and  _599
REMARK  237  A    between atoms: _599  and  _600
REMARK  238  A    between atoms: _600  and  _601
REMARK                            x       y       z     vdW  Elec       q    Type
REMARK                         _______ _______ _______ _____ _____    ______ ____
ROOT
ATOM      1  CG  LYS A   1      16.007  37.093  -4.432  0.00  0.00    -0.000 C 
ENDROOT
BRANCH   1   2
ATOM      2  CB  LYS A   1      14.904  37.113  -5.449  0.00  0.00    +0.025 C 
BRANCH   2   3
ATOM      3  CA  LYS A   1      14.171  35.791  -5.654  0.00  0.00    +0.133 C 
BRANCH   3   4
ATOM      4  N   LYS A   1      15.012  34.846  -6.374  0.00  0.00    -0.239 NA
ATOM      5  H   LYS A   1      15.744  35.217  -7.013  0.00  0.00    +0.142 HD
ENDBRANCH   3   4
BRANCH   3   6
ATOM      6  C   LYS A   1      12.944  36.063  -6.500  0.00  0.00    +0.224 C 
ATOM      7  O   LYS A   1      13.081  36.532  -7.629  0.00  0.00    -0.287 OA
ENDBRANCH   3   6
ENDBRANCH   2   3
ENDBRANCH   1   2
BRANCH   1   8
ATOM      8  CD  LYS A   1      16.725  38.463  -4.396  0.00  0.00    -0.024 C 
BRANCH   8   9
ATOM      9  CE  LYS A   1      17.920  38.538  -5.349  0.00  0.00    -0.086 C 
BRANCH   9  10
ATOM     10  NZ  LYS A   1      18.570  39.902  -5.307  0.00  0.00    +0.380 N 
ATOM     11  HZ1 LYS A   1      18.903  40.096  -4.341  0.00  0.00    -0.089 HD
ATOM     12  HZ2 LYS A   1      17.876  40.624  -5.587  0.00  0.00    -0.089 HD
ATOM     13  HZ3 LYS A   1      19.376  39.921  -5.964  0.00  0.00    -0.089 HD
ENDBRANCH   9  10
ENDBRANCH   8   9
ENDBRANCH   1   8
TORSDOF 7
REMARK  Name = ../refined-set-2016/3hu3/3hu3_pocket.pdb
REMARK  238 active torsions:
REMARK  status: ('A' for Active; 'I' for Inactive)
REMARK    1  A    between atoms: _1  and  _3
REMARK    2  A    between atoms: _3  and  _4
REMARK    3  A    between atoms: _3  and  _6
REMARK    4  A    between atoms: _9  and  _11
REMARK    5  A    between atoms: _11  and  _12
REMARK    6  A    between atoms: _11  and  _14
REMARK    7  A    between atoms: _14  and  _15
REMARK    8  A    between atoms: _20  and  _21
REMARK    9  A    between atoms: _23  and  _25
REMARK   10  A    between atoms: _25  and  _26
REMARK   11  A    between atoms: _25  and  _28
REMARK   12  A    between atoms: _28  and  _29
REMARK   13  A    between atoms: _32  and  _34
REMARK   14  A    between atoms: _34  and  _35
REMARK   15  A    between atoms: _34  and  _37
REMARK   16  A    between atoms: _37  and  _38
REMARK   17  A    between atoms: _41  and  _43
REMARK   18  A    between atoms: _43  and  _44
REMARK   19  A    between atoms: _43  and  _46
REMARK   20  A    between atoms: _46  and  _47
REMARK   21  A    between atoms: _50  and  _52
REMARK   22  A    between atoms: _52  and  _53
REMARK   23  A    between atoms: _55  and  _57
REMARK   24  A    between atoms: _57  and  _58
REMARK   25  A    between atoms: _60  and  _62
REMARK   26  A    between atoms: _62  and  _63
REMARK   27  A    between atoms: _62  and  _65
REMARK   28  A    between atoms: _67  and  _69
REMARK   29  A    between atoms: _69  and  _70
REMARK   30  A    between atoms: _69  and  _72
REMARK   31  A    between atoms: _72  and  _73
REMARK   32  A    between atoms: _73  and  _74
REMARK   33  A    between atoms: _74  and  _75
REMARK   34  A    between atoms: _84  and  _86
REMARK   35  A    between atoms: _86  and  _87
REMARK   36  A    between atoms: _86  and  _89
REMARK   37  A    between atoms: _89  and  _90
REMARK   38  A    between atoms: _90  and  _91
REMARK   39  A    between atoms: _96  and  _98
REMARK   40  A    between atoms: _98  and  _99
REMARK   41  A    between atoms: _98  and  _101
REMARK   42  A    between atoms: _101  and  _102
REMARK   43  A    between atoms: _105  and  _107
REMARK   44  A    between atoms: _107  and  _108
REMARK   45  A    between atoms: _107  and  _110
REMARK   46  A    between atoms: _110  and  _111
REMARK   47  A    between atoms: _114  and  _116
REMARK   48  A    between atoms: _116  and  _117
REMARK   49  A    between atoms: _116  and  _119
REMARK   50  A    between atoms: _119  and  _120
REMARK   51  A    between atoms: _125  and  _126
REMARK   52  A    between atoms: _128  and  _130
REMARK   53  A    between atoms: _130  and  _131
REMARK   54  A    between atoms: _134  and  _135
REMARK   55  A    between atoms: _141  and  _142
REMARK   56  A    between atoms: _147  and  _149
REMARK   57  A    between atoms: _149  and  _150
REMARK   58  A    between atoms: _152  and  _154
REMARK   59  A    between atoms: _154  and  _155
REMARK   60  A    between atoms: _154  and  _157
REMARK   61  A    between atoms: _157  and  _158
REMARK   62  A    between atoms: _161  and  _163
REMARK   63  A    between atoms: _163  and  _164
REMARK   64  A    between atoms: _166  and  _168
REMARK   65  A    between atoms: _168  and  _169
REMARK   66  A    between atoms: _168  and  _171
REMARK   67  A    between atoms: _171  and  _172
REMARK   68  A    between atoms: _172  and  _173
REMARK   69  A    between atoms: _173  and  _174
REMARK   70  A    between atoms: _174  and  _175
REMARK   71  A    between atoms: _179  and  _181
REMARK   72  A    between atoms: _181  and  _182
REMARK   73  A    between atoms: _181  and  _184
REMARK   74  A    between atoms: _184  and  _185
REMARK   75  A    between atoms: _188  and  _190
REMARK   76  A    between atoms: _190  and  _191
REMARK   77  A    between atoms: _190  and  _193
REMARK   78  A    between atoms: _193  and  _194
REMARK   79  A    between atoms: _197  and  _199
REMARK   80  A    between atoms: _199  and  _200
REMARK   81  A    between atoms: _199  and  _202
REMARK   82  A    between atoms: _202  and  _203
REMARK   83  A    between atoms: _206  and  _208
REMARK   84  A    between atoms: _208  and  _209
REMARK   85  A    between atoms: _212  and  _214
REMARK   86  A    between atoms: _214  and  _215
REMARK   87  A    between atoms: _214  and  _217
REMARK   88  A    between atoms: _217  and  _218
REMARK   89  A    between atoms: _218  and  _219
REMARK   90  A    between atoms: _219  and  _220
REMARK   91  A    between atoms: _229  and  _231
REMARK   92  A    between atoms: _231  and  _232
REMARK   93  A    between atoms: _235  and  _237
REMARK   94  A    between atoms: _237  and  _238
REMARK   95  A    between atoms: _237  and  _240
REMARK   96  A    between atoms: _240  and  _241
REMARK   97  A    between atoms: _247  and  _249
REMARK   98  A    between atoms: _249  and  _250
REMARK   99  A    between atoms: _249  and  _252
REMARK  100  A    between atoms: _252  and  _253
REMARK  101  A    between atoms: _256  and  _258
REMARK  102  A    between atoms: _258  and  _259
REMARK  103  A    between atoms: _258  and  _261
REMARK  104  A    between atoms: _261  and  _262
REMARK  105  A    between atoms: _262  and  _263
REMARK  106  A    between atoms: _266  and  _268
REMARK  107  A    between atoms: _268  and  _269
REMARK  108  A    between atoms: _268  and  _271
REMARK  109  A    between atoms: _271  and  _272
REMARK  110  A    between atoms: _275  and  _277
REMARK  111  A    between atoms: _277  and  _278
REMARK  112  A    between atoms: _281  and  _283
REMARK  113  A    between atoms: _283  and  _284
REMARK  114  A    between atoms: _283  and  _286
REMARK  115  A    between atoms: _286  and  _287
REMARK  116  A    between atoms: _290  and  _292
REMARK  117  A    between atoms: _292  and  _293
REMARK  118  A    between atoms: _292  and  _295
REMARK  119  A    between atoms: _295  and  _296
REMARK  120  A    between atoms: _301  and  _303
REMARK  121  A    between atoms: _303  and  _304
REMARK  122  A    between atoms: _303  and  _306
REMARK  123  A    between atoms: _306  and  _307
REMARK  124  A    between atoms: _307  and  _308
REMARK  125  A    between atoms: _308  and  _309
REMARK  126  A    between atoms: _318  and  _320
REMARK  127  A    between atoms: _320  and  _321
REMARK  128  A    between atoms: _320  and  _323
REMARK  129  A    between atoms: _323  and  _324
REMARK  130  A    between atoms: _327  and  _329
REMARK  131  A    between atoms: _329  and  _330
REMARK  132  A    between atoms: _333  and  _334
REMARK  133  A    between atoms: _339  and  _341
REMARK  134  A    between atoms: _341  and  _342
REMARK  135  A    between atoms: _344  and  _346
REMARK  136  A    between atoms: _346  and  _347
REMARK  137  A    between atoms: _346  and  _349
REMARK  138  A    between atoms: _349  and  _350
REMARK  139  A    between atoms: _350  and  _351
REMARK  140  A    between atoms: _351  and  _352
REMARK  141  A    between atoms: _361  and  _363
REMARK  142  A    between atoms: _363  and  _364
REMARK  143  A    between atoms: _363  and  _366
REMARK  144  A    between atoms: _366  and  _367
REMARK  145  A    between atoms: _367  and  _368
REMARK  146  A    between atoms: _371  and  _373
REMARK  147  A    between atoms: _373  and  _374
REMARK  148  A    between atoms: _373  and  _376
REMARK  149  A    between atoms: _376  and  _377
REMARK  150  A    between atoms: _380  and  _382
REMARK  151  A    between atoms: _382  and  _383
REMARK  152  A    between atoms: _382  and  _385
REMARK  153  A    between atoms: _385  and  _386
REMARK  154  A    between atoms: _389  and  _391
REMARK  155  A    between atoms: _391  and  _392
REMARK  156  A    between atoms: _391  and  _394
REMARK  157  A    between atoms: _394  and  _395
REMARK  158  A    between atoms: _395  and  _396
REMARK  159  A    between atoms: _401  and  _403
REMARK  160  A    between atoms: _403  and  _404
REMARK  161  A    between atoms: _403  and  _406
REMARK  162  A    between atoms: _406  and  _407
REMARK  163  A    between atoms: _410  and  _412
REMARK  164  A    between atoms: _412  and  _413
REMARK  165  A    between atoms: _412  and  _415
REMARK  166  A    between atoms: _415  and  _416
REMARK  167  A    between atoms: _421  and  _423
REMARK  168  A    between atoms: _423  and  _424
REMARK  169  A    between atoms: _423  and  _426
REMARK  170  A    between atoms: _429  and  _431
REMARK  171  A    between atoms: _431  and  _432
REMARK  172  A    between atoms: _434  and  _436
REMARK  173  A    between atoms: _436  and  _437
REMARK  174  A    between atoms: _440  and  _442
REMARK  175  A    between atoms: _442  and  _443
REMARK  176  A    between atoms: _442  and  _445
REMARK  177  A    between atoms: _445  and  _446
REMARK  178  A    between atoms: _449  and  _451
REMARK  179  A    between atoms: _451  and  _452
REMARK  180  A    between atoms: _451  and  _454
REMARK  181  A    between atoms: _454  and  _455
REMARK  182  A    between atoms: _458  and  _460
REMARK  183  A    between atoms: _460  and  _461
REMARK  184  A    between atoms: _464  and  _466
REMARK  185  A    between atoms: _466  and  _467
REMARK  186  A    between atoms: _470  and  _472
REMARK  187  A    between atoms: _472  and  _473
REMARK  188  A    between atoms: _472  and  _475
REMARK  189  A    between atoms: _475  and  _476
REMARK  190  A    between atoms: _478  and  _480
REMARK  191  A    between atoms: _480  and  _481
REMARK  192  A    between atoms: _480  and  _483
REMARK  193  A    between atoms: _483  and  _484
REMARK  194  A    between atoms: _484  and  _485
REMARK  195  A    between atoms: _485  and  _486
REMARK  196  A    between atoms: _486  and  _487
REMARK  197  A    between atoms: _491  and  _493
REMARK  198  A    between atoms: _493  and  _494
REMARK  199  A    between atoms: _493  and  _496
REMARK  200  A    between atoms: _496  and  _497
REMARK  201  A    between atoms: _497  and  _498
REMARK  202  A    between atoms: _498  and  _499
REMARK  203  A    between atoms: _508  and  _510
REMARK  204  A    between atoms: _510  and  _511
REMARK  205  A    between atoms: _510  and  _513
REMARK  206  A    between atoms: _513  and  _514
REMARK  207  A    between atoms: _517  and  _519
REMARK  208  A    between atoms: _519  and  _520
REMARK  209  A    between atoms: _519  and  _522
REMARK  210  A    between atoms: _522  and  _523
REMARK  211  A    between atoms: _523  and  _524
REMARK  212  A    between atoms: _530  and  _531
REMARK  213  A    between atoms: _536  and  _538
REMARK  214  A    between atoms: _538  and  _539
REMARK  215  A    between atoms: _542  and  _544
REMARK  216  A    between atoms: _544  and  _545
REMARK  217  A    between atoms: _544  and  _547
REMARK  218  A    between atoms: _547  and  _548
REMARK  219  A    between atoms: _548  and  _549
REMARK  220  A    between atoms: _549  and  _550
REMARK  221  A    between atoms: _559  and  _561
REMARK  222  A    between atoms: _561  and  _562
REMARK  223  A    between atoms: _561  and  _564
REMARK  224  A    between atoms: _564  and  _565
REMARK  225  A    between atoms: _565  and  _566
REMARK  226  A    between atoms: _566  and  _567
REMARK  227  A    between atoms: _576  and  _578
REMARK  228  A    between atoms: _578  and  _579
REMARK  229  A    between atoms: _578  and  _581
REMARK  230  A    between atoms: _581  and  _582
REMARK  231  A    between atoms: _588  and  _590
REMARK  232  A    between atoms: _590  and  _591
REMARK  233  A    between atoms: _593  and  _595
REMARK  234  A    between atoms: _595  and  _596
REMARK  235  A    between atoms: _595  and  _598
REMARK  236  A    between atoms: _598  and  _599
REMARK  237  A    between atoms: _599  and  _600
REMARK  238  A    between atoms: _600  and  _601
REMARK                            x       y       z     vdW  Elec       q    Type
REMARK                         _______ _______ _______ _____ _____    ______ ____
ROOT
ATOM      1  NE  ARG A   1      10.985  44.318  -3.243  0.00  0.00    -0.265 N 
ATOM      2  HE  ARG A   1      10.207  44.783  -2.734  0.00  0.00    +0.259 HD
ATOM      3  CZ  ARG A   1      12.232  44.591  -2.862  0.00  0.00    +0.342 C 
ATOM      4  NH2 ARG A   1      12.452  45.445  -1.866  0.00  0.00    -0.292 N 
ATOM      5 HH21 ARG A   1      11.650  45.900  -1.384  0.00  0.00    +0.255 HD
ATOM      6 HH22 ARG A   1      13.426  45.658  -1.569  0.00  0.00    +0.255 HD
ATOM      7  NH1 ARG A   1      13.262  44.016  -3.486  0.00  0.00    -0.292 N 
ATOM      8 HH11 ARG A   1      14.235  44.229  -3.188  0.00  0.00    +0.255 HD
ATOM      9 HH12 ARG A   1      13.091  43.354  -4.270  0.00  0.00    +0.255 HD
ENDROOT
BRANCH   1  10
ATOM     10  CD  ARG A   1      10.642  43.405  -4.333  0.00  0.00    +0.174 C 
BRANCH  10  11
ATOM     11  CG  ARG A   1       9.138  43.381  -4.621  0.00  0.00    +0.045 C 
BRANCH  11  12
ATOM     12  CB  ARG A   1       8.542  42.024  -4.257  0.00  0.00    +0.029 C 
BRANCH  12  13
ATOM     13  CA  ARG A   1       7.629  41.441  -5.332  0.00  0.00    +0.133 C 
BRANCH  13  14
ATOM     14  N   ARG A   1       8.430  40.996  -6.470  0.00  0.00    -0.239 NA
ATOM     15  H   ARG A   1       9.103  41.664  -6.899  0.00  0.00    +0.142 HD
ENDBRANCH  13  14
BRANCH  13  16
ATOM     16  C   ARG A   1       6.498  42.444  -5.640  0.00  0.00    +0.224 C 
ATOM     17  O   ARG A   1       5.788  42.870  -4.729  0.00  0.00    -0.287 OA
ENDBRANCH  13  16
ENDBRANCH  12  13
ENDBRANCH  11  12
ENDBRANCH  10  11
ENDBRANCH   1  10
TORSDOF 6
REMARK  Name = ../refined-set-2016/3hu3/3hu3_pocket.pdb
REMARK  238 active torsions:
REMARK  status: ('A' for Active; 'I' for Inactive)
REMARK    1  A    between atoms: _1  and  _3
REMARK    2  A    between atoms: _3  and  _4
REMARK    3  A    between atoms: _3  and  _6
REMARK    4  A    between atoms: _9  and  _11
REMARK    5  A    between atoms: _11  and  _12
REMARK    6  A    between atoms: _11  and  _14
REMARK    7  A    between atoms: _14  and  _15
REMARK    8  A    between atoms: _20  and  _21
REMARK    9  A    between atoms: _23  and  _25
REMARK   10  A    between atoms: _25  and  _26
REMARK   11  A    between atoms: _25  and  _28
REMARK   12  A    between atoms: _28  and  _29
REMARK   13  A    between atoms: _32  and  _34
REMARK   14  A    between atoms: _34  and  _35
REMARK   15  A    between atoms: _34  and  _37
REMARK   16  A    between atoms: _37  and  _38
REMARK   17  A    between atoms: _41  and  _43
REMARK   18  A    between atoms: _43  and  _44
REMARK   19  A    between atoms: _43  and  _46
REMARK   20  A    between atoms: _46  and  _47
REMARK   21  A    between atoms: _50  and  _52
REMARK   22  A    between atoms: _52  and  _53
REMARK   23  A    between atoms: _55  and  _57
REMARK   24  A    between atoms: _57  and  _58
REMARK   25  A    between atoms: _60  and  _62
REMARK   26  A    between atoms: _62  and  _63
REMARK   27  A    between atoms: _62  and  _65
REMARK   28  A    between atoms: _67  and  _69
REMARK   29  A    between atoms: _69  and  _70
REMARK   30  A    between atoms: _69  and  _72
REMARK   31  A    between atoms: _72  and  _73
REMARK   32  A    between atoms: _73  and  _74
REMARK   33  A    between atoms: _74  and  _75
REMARK   34  A    between atoms: _84  and  _86
REMARK   35  A    between atoms: _86  and  _87
REMARK   36  A    between atoms: _86  and  _89
REMARK   37  A    between atoms: _89  and  _90
REMARK   38  A    between atoms: _90  and  _91
REMARK   39  A    between atoms: _96  and  _98
REMARK   40  A    between atoms: _98  and  _99
REMARK   41  A    between atoms: _98  and  _101
REMARK   42  A    between atoms: _101  and  _102
REMARK   43  A    between atoms: _105  and  _107
REMARK   44  A    between atoms: _107  and  _108
REMARK   45  A    between atoms: _107  and  _110
REMARK   46  A    between atoms: _110  and  _111
REMARK   47  A    between atoms: _114  and  _116
REMARK   48  A    between atoms: _116  and  _117
REMARK   49  A    between atoms: _116  and  _119
REMARK   50  A    between atoms: _119  and  _120
REMARK   51  A    between atoms: _125  and  _126
REMARK   52  A    between atoms: _128  and  _130
REMARK   53  A    between atoms: _130  and  _131
REMARK   54  A    between atoms: _134  and  _135
REMARK   55  A    between atoms: _141  and  _142
REMARK   56  A    between atoms: _147  and  _149
REMARK   57  A    between atoms: _149  and  _150
REMARK   58  A    between atoms: _152  and  _154
REMARK   59  A    between atoms: _154  and  _155
REMARK   60  A    between atoms: _154  and  _157
REMARK   61  A    between atoms: _157  and  _158
REMARK   62  A    between atoms: _161  and  _163
REMARK   63  A    between atoms: _163  and  _164
REMARK   64  A    between atoms: _166  and  _168
REMARK   65  A    between atoms: _168  and  _169
REMARK   66  A    between atoms: _168  and  _171
REMARK   67  A    between atoms: _171  and  _172
REMARK   68  A    between atoms: _172  and  _173
REMARK   69  A    between atoms: _173  and  _174
REMARK   70  A    between atoms: _174  and  _175
REMARK   71  A    between atoms: _179  and  _181
REMARK   72  A    between atoms: _181  and  _182
REMARK   73  A    between atoms: _181  and  _184
REMARK   74  A    between atoms: _184  and  _185
REMARK   75  A    between atoms: _188  and  _190
REMARK   76  A    between atoms: _190  and  _191
REMARK   77  A    between atoms: _190  and  _193
REMARK   78  A    between atoms: _193  and  _194
REMARK   79  A    between atoms: _197  and  _199
REMARK   80  A    between atoms: _199  and  _200
REMARK   81  A    between atoms: _199  and  _202
REMARK   82  A    between atoms: _202  and  _203
REMARK   83  A    between atoms: _206  and  _208
REMARK   84  A    between atoms: _208  and  _209
REMARK   85  A    between atoms: _212  and  _214
REMARK   86  A    between atoms: _214  and  _215
REMARK   87  A    between atoms: _214  and  _217
REMARK   88  A    between atoms: _217  and  _218
REMARK   89  A    between atoms: _218  and  _219
REMARK   90  A    between atoms: _219  and  _220
REMARK   91  A    between atoms: _229  and  _231
REMARK   92  A    between atoms: _231  and  _232
REMARK   93  A    between atoms: _235  and  _237
REMARK   94  A    between atoms: _237  and  _238
REMARK   95  A    between atoms: _237  and  _240
REMARK   96  A    between atoms: _240  and  _241
REMARK   97  A    between atoms: _247  and  _249
REMARK   98  A    between atoms: _249  and  _250
REMARK   99  A    between atoms: _249  and  _252
REMARK  100  A    between atoms: _252  and  _253
REMARK  101  A    between atoms: _256  and  _258
REMARK  102  A    between atoms: _258  and  _259
REMARK  103  A    between atoms: _258  and  _261
REMARK  104  A    between atoms: _261  and  _262
REMARK  105  A    between atoms: _262  and  _263
REMARK  106  A    between atoms: _266  and  _268
REMARK  107  A    between atoms: _268  and  _269
REMARK  108  A    between atoms: _268  and  _271
REMARK  109  A    between atoms: _271  and  _272
REMARK  110  A    between atoms: _275  and  _277
REMARK  111  A    between atoms: _277  and  _278
REMARK  112  A    between atoms: _281  and  _283
REMARK  113  A    between atoms: _283  and  _284
REMARK  114  A    between atoms: _283  and  _286
REMARK  115  A    between atoms: _286  and  _287
REMARK  116  A    between atoms: _290  and  _292
REMARK  117  A    between atoms: _292  and  _293
REMARK  118  A    between atoms: _292  and  _295
REMARK  119  A    between atoms: _295  and  _296
REMARK  120  A    between atoms: _301  and  _303
REMARK  121  A    between atoms: _303  and  _304
REMARK  122  A    between atoms: _303  and  _306
REMARK  123  A    between atoms: _306  and  _307
REMARK  124  A    between atoms: _307  and  _308
REMARK  125  A    between atoms: _308  and  _309
REMARK  126  A    between atoms: _318  and  _320
REMARK  127  A    between atoms: _320  and  _321
REMARK  128  A    between atoms: _320  and  _323
REMARK  129  A    between atoms: _323  and  _324
REMARK  130  A    between atoms: _327  and  _329
REMARK  131  A    between atoms: _329  and  _330
REMARK  132  A    between atoms: _333  and  _334
REMARK  133  A    between atoms: _339  and  _341
REMARK  134  A    between atoms: _341  and  _342
REMARK  135  A    between atoms: _344  and  _346
REMARK  136  A    between atoms: _346  and  _347
REMARK  137  A    between atoms: _346  and  _349
REMARK  138  A    between atoms: _349  and  _350
REMARK  139  A    between atoms: _350  and  _351
REMARK  140  A    between atoms: _351  and  _352
REMARK  141  A    between atoms: _361  and  _363
REMARK  142  A    between atoms: _363  and  _364
REMARK  143  A    between atoms: _363  and  _366
REMARK  144  A    between atoms: _366  and  _367
REMARK  145  A    between atoms: _367  and  _368
REMARK  146  A    between atoms: _371  and  _373
REMARK  147  A    between atoms: _373  and  _374
REMARK  148  A    between atoms: _373  and  _376
REMARK  149  A    between atoms: _376  and  _377
REMARK  150  A    between atoms: _380  and  _382
REMARK  151  A    between atoms: _382  and  _383
REMARK  152  A    between atoms: _382  and  _385
REMARK  153  A    between atoms: _385  and  _386
REMARK  154  A    between atoms: _389  and  _391
REMARK  155  A    between atoms: _391  and  _392
REMARK  156  A    between atoms: _391  and  _394
REMARK  157  A    between atoms: _394  and  _395
REMARK  158  A    between atoms: _395  and  _396
REMARK  159  A    between atoms: _401  and  _403
REMARK  160  A    between atoms: _403  and  _404
REMARK  161  A    between atoms: _403  and  _406
REMARK  162  A    between atoms: _406  and  _407
REMARK  163  A    between atoms: _410  and  _412
REMARK  164  A    between atoms: _412  and  _413
REMARK  165  A    between atoms: _412  and  _415
REMARK  166  A    between atoms: _415  and  _416
REMARK  167  A    between atoms: _421  and  _423
REMARK  168  A    between atoms: _423  and  _424
REMARK  169  A    between atoms: _423  and  _426
REMARK  170  A    between atoms: _429  and  _431
REMARK  171  A    between atoms: _431  and  _432
REMARK  172  A    between atoms: _434  and  _436
REMARK  173  A    between atoms: _436  and  _437
REMARK  174  A    between atoms: _440  and  _442
REMARK  175  A    between atoms: _442  and  _443
REMARK  176  A    between atoms: _442  and  _445
REMARK  177  A    between atoms: _445  and  _446
REMARK  178  A    between atoms: _449  and  _451
REMARK  179  A    between atoms: _451  and  _452
REMARK  180  A    between atoms: _451  and  _454
REMARK  181  A    between atoms: _454  and  _455
REMARK  182  A    between atoms: _458  and  _460
REMARK  183  A    between atoms: _460  and  _461
REMARK  184  A    between atoms: _464  and  _466
REMARK  185  A    between atoms: _466  and  _467
REMARK  186  A    between atoms: _470  and  _472
REMARK  187  A    between atoms: _472  and  _473
REMARK  188  A    between atoms: _472  and  _475
REMARK  189  A    between atoms: _475  and  _476
REMARK  190  A    between atoms: _478  and  _480
REMARK  191  A    between atoms: _480  and  _481
REMARK  192  A    between atoms: _480  and  _483
REMARK  193  A    between atoms: _483  and  _484
REMARK  194  A    between atoms: _484  and  _485
REMARK  195  A    between atoms: _485  and  _486
REMARK  196  A    between atoms: _486  and  _487
REMARK  197  A    between atoms: _491  and  _493
REMARK  198  A    between atoms: _493  and  _494
REMARK  199  A    between atoms: _493  and  _496
REMARK  200  A    between atoms: _496  and  _497
REMARK  201  A    between atoms: _497  and  _498
REMARK  202  A    between atoms: _498  and  _499
REMARK  203  A    between atoms: _508  and  _510
REMARK  204  A    between atoms: _510  and  _511
REMARK  205  A    between atoms: _510  and  _513
REMARK  206  A    between atoms: _513  and  _514
REMARK  207  A    between atoms: _517  and  _519
REMARK  208  A    between atoms: _519  and  _520
REMARK  209  A    between atoms: _519  and  _522
REMARK  210  A    between atoms: _522  and  _523
REMARK  211  A    between atoms: _523  and  _524
REMARK  212  A    between atoms: _530  and  _531
REMARK  213  A    between atoms: _536  and  _538
REMARK  214  A    between atoms: _538  and  _539
REMARK  215  A    between atoms: _542  and  _544
REMARK  216  A    between atoms: _544  and  _545
REMARK  217  A    between atoms: _544  and  _547
REMARK  218  A    between atoms: _547  and  _548
REMARK  219  A    between atoms: _548  and  _549
REMARK  220  A    between atoms: _549  and  _550
REMARK  221  A    between atoms: _559  and  _561
REMARK  222  A    between atoms: _561  and  _562
REMARK  223  A    between atoms: _561  and  _564
REMARK  224  A    between atoms: _564  and  _565
REMARK  225  A    between atoms: _565  and  _566
REMARK  226  A    between atoms: _566  and  _567
REMARK  227  A    between atoms: _576  and  _578
REMARK  228  A    between atoms: _578  and  _579
REMARK  229  A    between atoms: _578  and  _581
REMARK  230  A    between atoms: _581  and  _582
REMARK  231  A    between atoms: _588  and  _590
REMARK  232  A    between atoms: _590  and  _591
REMARK  233  A    between atoms: _593  and  _595
REMARK  234  A    between atoms: _595  and  _596
REMARK  235  A    between atoms: _595  and  _598
REMARK  236  A    between atoms: _598  and  _599
REMARK  237  A    between atoms: _599  and  _600
REMARK  238  A    between atoms: _600  and  _601
REMARK                            x       y       z     vdW  Elec       q    Type
REMARK                         _______ _______ _______ _____ _____    ______ ____
ROOT
ATOM      1  CA  ASP A   1      12.539  50.177  -2.168  0.00  0.00    +0.144 C 
ENDROOT
BRANCH   1   2
ATOM      2  N   ASP A   1      11.101  50.434  -2.351  0.00  0.00    -0.239 NA
ATOM      3  H   ASP A   1      10.790  51.399  -2.582  0.00  0.00    +0.142 HD
ENDBRANCH   1   2
BRANCH   1   4
ATOM      4  C   ASP A   1      12.888  49.700  -0.766  0.00  0.00    +0.225 C 
ATOM      5  O   ASP A   1      13.760  48.860  -0.600  0.00  0.00    -0.287 OA
ENDBRANCH   1   4
BRANCH   1   6
ATOM      6  CB  ASP A   1      13.347  51.427  -2.501  0.00  0.00    +0.139 C 
BRANCH   6   7
ATOM      7  CG  ASP A   1      13.237  51.798  -3.952  0.00  0.00    +0.367 C 
ATOM      8  OD2 ASP A   1      13.813  52.823  -4.359  0.00  0.00    -0.246 OA
ATOM      9  OD1 ASP A   1      12.575  51.045  -4.682  0.00  0.00    -0.246 OA
ENDBRANCH   6   7
ENDBRANCH   1   6
TORSDOF 4
REMARK  Name = ../refined-set-2016/3hu3/3hu3_pocket.pdb
REMARK  238 active torsions:
REMARK  status: ('A' for Active; 'I' for Inactive)
REMARK    1  A    between atoms: _1  and  _3
REMARK    2  A    between atoms: _3  and  _4
REMARK    3  A    between atoms: _3  and  _6
REMARK    4  A    between atoms: _9  and  _11
REMARK    5  A    between atoms: _11  and  _12
REMARK    6  A    between atoms: _11  and  _14
REMARK    7  A    between atoms: _14  and  _15
REMARK    8  A    between atoms: _20  and  _21
REMARK    9  A    between atoms: _23  and  _25
REMARK   10  A    between atoms: _25  and  _26
REMARK   11  A    between atoms: _25  and  _28
REMARK   12  A    between atoms: _28  and  _29
REMARK   13  A    between atoms: _32  and  _34
REMARK   14  A    between atoms: _34  and  _35
REMARK   15  A    between atoms: _34  and  _37
REMARK   16  A    between atoms: _37  and  _38
REMARK   17  A    between atoms: _41  and  _43
REMARK   18  A    between atoms: _43  and  _44
REMARK   19  A    between atoms: _43  and  _46
REMARK   20  A    between atoms: _46  and  _47
REMARK   21  A    between atoms: _50  and  _52
REMARK   22  A    between atoms: _52  and  _53
REMARK   23  A    between atoms: _55  and  _57
REMARK   24  A    between atoms: _57  and  _58
REMARK   25  A    between atoms: _60  and  _62
REMARK   26  A    between atoms: _62  and  _63
REMARK   27  A    between atoms: _62  and  _65
REMARK   28  A    between atoms: _67  and  _69
REMARK   29  A    between atoms: _69  and  _70
REMARK   30  A    between atoms: _69  and  _72
REMARK   31  A    between atoms: _72  and  _73
REMARK   32  A    between atoms: _73  and  _74
REMARK   33  A    between atoms: _74  and  _75
REMARK   34  A    between atoms: _84  and  _86
REMARK   35  A    between atoms: _86  and  _87
REMARK   36  A    between atoms: _86  and  _89
REMARK   37  A    between atoms: _89  and  _90
REMARK   38  A    between atoms: _90  and  _91
REMARK   39  A    between atoms: _96  and  _98
REMARK   40  A    between atoms: _98  and  _99
REMARK   41  A    between atoms: _98  and  _101
REMARK   42  A    between atoms: _101  and  _102
REMARK   43  A    between atoms: _105  and  _107
REMARK   44  A    between atoms: _107  and  _108
REMARK   45  A    between atoms: _107  and  _110
REMARK   46  A    between atoms: _110  and  _111
REMARK   47  A    between atoms: _114  and  _116
REMARK   48  A    between atoms: _116  and  _117
REMARK   49  A    between atoms: _116  and  _119
REMARK   50  A    between atoms: _119  and  _120
REMARK   51  A    between atoms: _125  and  _126
REMARK   52  A    between atoms: _128  and  _130
REMARK   53  A    between atoms: _130  and  _131
REMARK   54  A    between atoms: _134  and  _135
REMARK   55  A    between atoms: _141  and  _142
REMARK   56  A    between atoms: _147  and  _149
REMARK   57  A    between atoms: _149  and  _150
REMARK   58  A    between atoms: _152  and  _154
REMARK   59  A    between atoms: _154  and  _155
REMARK   60  A    between atoms: _154  and  _157
REMARK   61  A    between atoms: _157  and  _158
REMARK   62  A    between atoms: _161  and  _163
REMARK   63  A    between atoms: _163  and  _164
REMARK   64  A    between atoms: _166  and  _168
REMARK   65  A    between atoms: _168  and  _169
REMARK   66  A    between atoms: _168  and  _171
REMARK   67  A    between atoms: _171  and  _172
REMARK   68  A    between atoms: _172  and  _173
REMARK   69  A    between atoms: _173  and  _174
REMARK   70  A    between atoms: _174  and  _175
REMARK   71  A    between atoms: _179  and  _181
REMARK   72  A    between atoms: _181  and  _182
REMARK   73  A    between atoms: _181  and  _184
REMARK   74  A    between atoms: _184  and  _185
REMARK   75  A    between atoms: _188  and  _190
REMARK   76  A    between atoms: _190  and  _191
REMARK   77  A    between atoms: _190  and  _193
REMARK   78  A    between atoms: _193  and  _194
REMARK   79  A    between atoms: _197  and  _199
REMARK   80  A    between atoms: _199  and  _200
REMARK   81  A    between atoms: _199  and  _202
REMARK   82  A    between atoms: _202  and  _203
REMARK   83  A    between atoms: _206  and  _208
REMARK   84  A    between atoms: _208  and  _209
REMARK   85  A    between atoms: _212  and  _214
REMARK   86  A    between atoms: _214  and  _215
REMARK   87  A    between atoms: _214  and  _217
REMARK   88  A    between atoms: _217  and  _218
REMARK   89  A    between atoms: _218  and  _219
REMARK   90  A    between atoms: _219  and  _220
REMARK   91  A    between atoms: _229  and  _231
REMARK   92  A    between atoms: _231  and  _232
REMARK   93  A    between atoms: _235  and  _237
REMARK   94  A    between atoms: _237  and  _238
REMARK   95  A    between atoms: _237  and  _240
REMARK   96  A    between atoms: _240  and  _241
REMARK   97  A    between atoms: _247  and  _249
REMARK   98  A    between atoms: _249  and  _250
REMARK   99  A    between atoms: _249  and  _252
REMARK  100  A    between atoms: _252  and  _253
REMARK  101  A    between atoms: _256  and  _258
REMARK  102  A    between atoms: _258  and  _259
REMARK  103  A    between atoms: _258  and  _261
REMARK  104  A    between atoms: _261  and  _262
REMARK  105  A    between atoms: _262  and  _263
REMARK  106  A    between atoms: _266  and  _268
REMARK  107  A    between atoms: _268  and  _269
REMARK  108  A    between atoms: _268  and  _271
REMARK  109  A    between atoms: _271  and  _272
REMARK  110  A    between atoms: _275  and  _277
REMARK  111  A    between atoms: _277  and  _278
REMARK  112  A    between atoms: _281  and  _283
REMARK  113  A    between atoms: _283  and  _284
REMARK  114  A    between atoms: _283  and  _286
REMARK  115  A    between atoms: _286  and  _287
REMARK  116  A    between atoms: _290  and  _292
REMARK  117  A    between atoms: _292  and  _293
REMARK  118  A    between atoms: _292  and  _295
REMARK  119  A    between atoms: _295  and  _296
REMARK  120  A    between atoms: _301  and  _303
REMARK  121  A    between atoms: _303  and  _304
REMARK  122  A    between atoms: _303  and  _306
REMARK  123  A    between atoms: _306  and  _307
REMARK  124  A    between atoms: _307  and  _308
REMARK  125  A    between atoms: _308  and  _309
REMARK  126  A    between atoms: _318  and  _320
REMARK  127  A    between atoms: _320  and  _321
REMARK  128  A    between atoms: _320  and  _323
REMARK  129  A    between atoms: _323  and  _324
REMARK  130  A    between atoms: _327  and  _329
REMARK  131  A    between atoms: _329  and  _330
REMARK  132  A    between atoms: _333  and  _334
REMARK  133  A    between atoms: _339  and  _341
REMARK  134  A    between atoms: _341  and  _342
REMARK  135  A    between atoms: _344  and  _346
REMARK  136  A    between atoms: _346  and  _347
REMARK  137  A    between atoms: _346  and  _349
REMARK  138  A    between atoms: _349  and  _350
REMARK  139  A    between atoms: _350  and  _351
REMARK  140  A    between atoms: _351  and  _352
REMARK  141  A    between atoms: _361  and  _363
REMARK  142  A    between atoms: _363  and  _364
REMARK  143  A    between atoms: _363  and  _366
REMARK  144  A    between atoms: _366  and  _367
REMARK  145  A    between atoms: _367  and  _368
REMARK  146  A    between atoms: _371  and  _373
REMARK  147  A    between atoms: _373  and  _374
REMARK  148  A    between atoms: _373  and  _376
REMARK  149  A    between atoms: _376  and  _377
REMARK  150  A    between atoms: _380  and  _382
REMARK  151  A    between atoms: _382  and  _383
REMARK  152  A    between atoms: _382  and  _385
REMARK  153  A    between atoms: _385  and  _386
REMARK  154  A    between atoms: _389  and  _391
REMARK  155  A    between atoms: _391  and  _392
REMARK  156  A    between atoms: _391  and  _394
REMARK  157  A    between atoms: _394  and  _395
REMARK  158  A    between atoms: _395  and  _396
REMARK  159  A    between atoms: _401  and  _403
REMARK  160  A    between atoms: _403  and  _404
REMARK  161  A    between atoms: _403  and  _406
REMARK  162  A    between atoms: _406  and  _407
REMARK  163  A    between atoms: _410  and  _412
REMARK  164  A    between atoms: _412  and  _413
REMARK  165  A    between atoms: _412  and  _415
REMARK  166  A    between atoms: _415  and  _416
REMARK  167  A    between atoms: _421  and  _423
REMARK  168  A    between atoms: _423  and  _424
REMARK  169  A    between atoms: _423  and  _426
REMARK  170  A    between atoms: _429  and  _431
REMARK  171  A    between atoms: _431  and  _432
REMARK  172  A    between atoms: _434  and  _436
REMARK  173  A    between atoms: _436  and  _437
REMARK  174  A    between atoms: _440  and  _442
REMARK  175  A    between atoms: _442  and  _443
REMARK  176  A    between atoms: _442  and  _445
REMARK  177  A    between atoms: _445  and  _446
REMARK  178  A    between atoms: _449  and  _451
REMARK  179  A    between atoms: _451  and  _452
REMARK  180  A    between atoms: _451  and  _454
REMARK  181  A    between atoms: _454  and  _455
REMARK  182  A    between atoms: _458  and  _460
REMARK  183  A    between atoms: _460  and  _461
REMARK  184  A    between atoms: _464  and  _466
REMARK  185  A    between atoms: _466  and  _467
REMARK  186  A    between atoms: _470  and  _472
REMARK  187  A    between atoms: _472  and  _473
REMARK  188  A    between atoms: _472  and  _475
REMARK  189  A    between atoms: _475  and  _476
REMARK  190  A    between atoms: _478  and  _480
REMARK  191  A    between atoms: _480  and  _481
REMARK  192  A    between atoms: _480  and  _483
REMARK  193  A    between atoms: _483  and  _484
REMARK  194  A    between atoms: _484  and  _485
REMARK  195  A    between atoms: _485  and  _486
REMARK  196  A    between atoms: _486  and  _487
REMARK  197  A    between atoms: _491  and  _493
REMARK  198  A    between atoms: _493  and  _494
REMARK  199  A    between atoms: _493  and  _496
REMARK  200  A    between atoms: _496  and  _497
REMARK  201  A    between atoms: _497  and  _498
REMARK  202  A    between atoms: _498  and  _499
REMARK  203  A    between atoms: _508  and  _510
REMARK  204  A    between atoms: _510  and  _511
REMARK  205  A    between atoms: _510  and  _513
REMARK  206  A    between atoms: _513  and  _514
REMARK  207  A    between atoms: _517  and  _519
REMARK  208  A    between atoms: _519  and  _520
REMARK  209  A    between atoms: _519  and  _522
REMARK  210  A    between atoms: _522  and  _523
REMARK  211  A    between atoms: _523  and  _524
REMARK  212  A    between atoms: _530  and  _531
REMARK  213  A    between atoms: _536  and  _538
REMARK  214  A    between atoms: _538  and  _539
REMARK  215  A    between atoms: _542  and  _544
REMARK  216  A    between atoms: _544  and  _545
REMARK  217  A    between atoms: _544  and  _547
REMARK  218  A    between atoms: _547  and  _548
REMARK  219  A    between atoms: _548  and  _549
REMARK  220  A    between atoms: _549  and  _550
REMARK  221  A    between atoms: _559  and  _561
REMARK  222  A    between atoms: _561  and  _562
REMARK  223  A    between atoms: _561  and  _564
REMARK  224  A    between atoms: _564  and  _565
REMARK  225  A    between atoms: _565  and  _566
REMARK  226  A    between atoms: _566  and  _567
REMARK  227  A    between atoms: _576  and  _578
REMARK  228  A    between atoms: _578  and  _579
REMARK  229  A    between atoms: _578  and  _581
REMARK  230  A    between atoms: _581  and  _582
REMARK  231  A    between atoms: _588  and  _590
REMARK  232  A    between atoms: _590  and  _591
REMARK  233  A    between atoms: _593  and  _595
REMARK  234  A    between atoms: _595  and  _596
REMARK  235  A    between atoms: _595  and  _598
REMARK  236  A    between atoms: _598  and  _599
REMARK  237  A    between atoms: _599  and  _600
REMARK  238  A    between atoms: _600  and  _601
REMARK                            x       y       z     vdW  Elec       q    Type
REMARK                         _______ _______ _______ _____ _____    ______ ____
ROOT
ATOM      1  CB  GLN A   1      15.893  40.621  -0.034  0.00  0.00    +0.035 C 
ENDROOT
BRANCH   1   2
ATOM      2  CA  GLN A   1      14.571  41.052   0.609  0.00  0.00    +0.134 C 
BRANCH   2   3
ATOM      3  N   GLN A   1      14.751  42.273   1.403  0.00  0.00    -0.239 NA
ATOM      4  H   GLN A   1      15.711  42.642   1.560  0.00  0.00    +0.142 HD
ENDBRANCH   2   3
BRANCH   2   5
ATOM      5  C   GLN A   1      13.940  39.919   1.410  0.00  0.00    +0.224 C 
ATOM      6  O   GLN A   1      13.250  39.062   0.851  0.00  0.00    -0.287 OA
ENDBRANCH   2   5
ENDBRANCH   1   2
BRANCH   1   7
ATOM      7  CG  GLN A   1      16.004  40.957  -1.538  0.00  0.00    +0.087 C 
BRANCH   7   8
ATOM      8  CD  GLN A   1      16.132  42.446  -1.846  0.00  0.00    +0.219 C 
ATOM      9  OE1 GLN A   1      15.969  43.298  -0.970  0.00  0.00    -0.275 OA
ATOM     10  NE2 GLN A   1      16.431  42.761  -3.109  0.00  0.00    -0.329 N 
ATOM     11 HE21 GLN A   1      16.535  43.758  -3.386  0.00  0.00    +0.145 HD
ATOM     12 HE22 GLN A   1      16.560  42.009  -3.816  0.00  0.00    +0.145 HD
ENDBRANCH   7   8
ENDBRANCH   1   7
TORSDOF 5
REMARK  Name = ../refined-set-2016/3hu3/3hu3_pocket.pdb
REMARK  238 active torsions:
REMARK  status: ('A' for Active; 'I' for Inactive)
REMARK    1  A    between atoms: _1  and  _3
REMARK    2  A    between atoms: _3  and  _4
REMARK    3  A    between atoms: _3  and  _6
REMARK    4  A    between atoms: _9  and  _11
REMARK    5  A    between atoms: _11  and  _12
REMARK    6  A    between atoms: _11  and  _14
REMARK    7  A    between atoms: _14  and  _15
REMARK    8  A    between atoms: _20  and  _21
REMARK    9  A    between atoms: _23  and  _25
REMARK   10  A    between atoms: _25  and  _26
REMARK   11  A    between atoms: _25  and  _28
REMARK   12  A    between atoms: _28  and  _29
REMARK   13  A    between atoms: _32  and  _34
REMARK   14  A    between atoms: _34  and  _35
REMARK   15  A    between atoms: _34  and  _37
REMARK   16  A    between atoms: _37  and  _38
REMARK   17  A    between atoms: _41  and  _43
REMARK   18  A    between atoms: _43  and  _44
REMARK   19  A    between atoms: _43  and  _46
REMARK   20  A    between atoms: _46  and  _47
REMARK   21  A    between atoms: _50  and  _52
REMARK   22  A    between atoms: _52  and  _53
REMARK   23  A    between atoms: _55  and  _57
REMARK   24  A    between atoms: _57  and  _58
REMARK   25  A    between atoms: _60  and  _62
REMARK   26  A    between atoms: _62  and  _63
REMARK   27  A    between atoms: _62  and  _65
REMARK   28  A    between atoms: _67  and  _69
REMARK   29  A    between atoms: _69  and  _70
REMARK   30  A    between atoms: _69  and  _72
REMARK   31  A    between atoms: _72  and  _73
REMARK   32  A    between atoms: _73  and  _74
REMARK   33  A    between atoms: _74  and  _75
REMARK   34  A    between atoms: _84  and  _86
REMARK   35  A    between atoms: _86  and  _87
REMARK   36  A    between atoms: _86  and  _89
REMARK   37  A    between atoms: _89  and  _90
REMARK   38  A    between atoms: _90  and  _91
REMARK   39  A    between atoms: _96  and  _98
REMARK   40  A    between atoms: _98  and  _99
REMARK   41  A    between atoms: _98  and  _101
REMARK   42  A    between atoms: _101  and  _102
REMARK   43  A    between atoms: _105  and  _107
REMARK   44  A    between atoms: _107  and  _108
REMARK   45  A    between atoms: _107  and  _110
REMARK   46  A    between atoms: _110  and  _111
REMARK   47  A    between atoms: _114  and  _116
REMARK   48  A    between atoms: _116  and  _117
REMARK   49  A    between atoms: _116  and  _119
REMARK   50  A    between atoms: _119  and  _120
REMARK   51  A    between atoms: _125  and  _126
REMARK   52  A    between atoms: _128  and  _130
REMARK   53  A    between atoms: _130  and  _131
REMARK   54  A    between atoms: _134  and  _135
REMARK   55  A    between atoms: _141  and  _142
REMARK   56  A    between atoms: _147  and  _149
REMARK   57  A    between atoms: _149  and  _150
REMARK   58  A    between atoms: _152  and  _154
REMARK   59  A    between atoms: _154  and  _155
REMARK   60  A    between atoms: _154  and  _157
REMARK   61  A    between atoms: _157  and  _158
REMARK   62  A    between atoms: _161  and  _163
REMARK   63  A    between atoms: _163  and  _164
REMARK   64  A    between atoms: _166  and  _168
REMARK   65  A    between atoms: _168  and  _169
REMARK   66  A    between atoms: _168  and  _171
REMARK   67  A    between atoms: _171  and  _172
REMARK   68  A    between atoms: _172  and  _173
REMARK   69  A    between atoms: _173  and  _174
REMARK   70  A    between atoms: _174  and  _175
REMARK   71  A    between atoms: _179  and  _181
REMARK   72  A    between atoms: _181  and  _182
REMARK   73  A    between atoms: _181  and  _184
REMARK   74  A    between atoms: _184  and  _185
REMARK   75  A    between atoms: _188  and  _190
REMARK   76  A    between atoms: _190  and  _191
REMARK   77  A    between atoms: _190  and  _193
REMARK   78  A    between atoms: _193  and  _194
REMARK   79  A    between atoms: _197  and  _199
REMARK   80  A    between atoms: _199  and  _200
REMARK   81  A    between atoms: _199  and  _202
REMARK   82  A    between atoms: _202  and  _203
REMARK   83  A    between atoms: _206  and  _208
REMARK   84  A    between atoms: _208  and  _209
REMARK   85  A    between atoms: _212  and  _214
REMARK   86  A    between atoms: _214  and  _215
REMARK   87  A    between atoms: _214  and  _217
REMARK   88  A    between atoms: _217  and  _218
REMARK   89  A    between atoms: _218  and  _219
REMARK   90  A    between atoms: _219  and  _220
REMARK   91  A    between atoms: _229  and  _231
REMARK   92  A    between atoms: _231  and  _232
REMARK   93  A    between atoms: _235  and  _237
REMARK   94  A    between atoms: _237  and  _238
REMARK   95  A    between atoms: _237  and  _240
REMARK   96  A    between atoms: _240  and  _241
REMARK   97  A    between atoms: _247  and  _249
REMARK   98  A    between atoms: _249  and  _250
REMARK   99  A    between atoms: _249  and  _252
REMARK  100  A    between atoms: _252  and  _253
REMARK  101  A    between atoms: _256  and  _258
REMARK  102  A    between atoms: _258  and  _259
REMARK  103  A    between atoms: _258  and  _261
REMARK  104  A    between atoms: _261  and  _262
REMARK  105  A    between atoms: _262  and  _263
REMARK  106  A    between atoms: _266  and  _268
REMARK  107  A    between atoms: _268  and  _269
REMARK  108  A    between atoms: _268  and  _271
REMARK  109  A    between atoms: _271  and  _272
REMARK  110  A    between atoms: _275  and  _277
REMARK  111  A    between atoms: _277  and  _278
REMARK  112  A    between atoms: _281  and  _283
REMARK  113  A    between atoms: _283  and  _284
REMARK  114  A    between atoms: _283  and  _286
REMARK  115  A    between atoms: _286  and  _287
REMARK  116  A    between atoms: _290  and  _292
REMARK  117  A    between atoms: _292  and  _293
REMARK  118  A    between atoms: _292  and  _295
REMARK  119  A    between atoms: _295  and  _296
REMARK  120  A    between atoms: _301  and  _303
REMARK  121  A    between atoms: _303  and  _304
REMARK  122  A    between atoms: _303  and  _306
REMARK  123  A    between atoms: _306  and  _307
REMARK  124  A    between atoms: _307  and  _308
REMARK  125  A    between atoms: _308  and  _309
REMARK  126  A    between atoms: _318  and  _320
REMARK  127  A    between atoms: _320  and  _321
REMARK  128  A    between atoms: _320  and  _323
REMARK  129  A    between atoms: _323  and  _324
REMARK  130  A    between atoms: _327  and  _329
REMARK  131  A    between atoms: _329  and  _330
REMARK  132  A    between atoms: _333  and  _334
REMARK  133  A    between atoms: _339  and  _341
REMARK  134  A    between atoms: _341  and  _342
REMARK  135  A    between atoms: _344  and  _346
REMARK  136  A    between atoms: _346  and  _347
REMARK  137  A    between atoms: _346  and  _349
REMARK  138  A    between atoms: _349  and  _350
REMARK  139  A    between atoms: _350  and  _351
REMARK  140  A    between atoms: _351  and  _352
REMARK  141  A    between atoms: _361  and  _363
REMARK  142  A    between atoms: _363  and  _364
REMARK  143  A    between atoms: _363  and  _366
REMARK  144  A    between atoms: _366  and  _367
REMARK  145  A    between atoms: _367  and  _368
REMARK  146  A    between atoms: _371  and  _373
REMARK  147  A    between atoms: _373  and  _374
REMARK  148  A    between atoms: _373  and  _376
REMARK  149  A    between atoms: _376  and  _377
REMARK  150  A    between atoms: _380  and  _382
REMARK  151  A    between atoms: _382  and  _383
REMARK  152  A    between atoms: _382  and  _385
REMARK  153  A    between atoms: _385  and  _386
REMARK  154  A    between atoms: _389  and  _391
REMARK  155  A    between atoms: _391  and  _392
REMARK  156  A    between atoms: _391  and  _394
REMARK  157  A    between atoms: _394  and  _395
REMARK  158  A    between atoms: _395  and  _396
REMARK  159  A    between atoms: _401  and  _403
REMARK  160  A    between atoms: _403  and  _404
REMARK  161  A    between atoms: _403  and  _406
REMARK  162  A    between atoms: _406  and  _407
REMARK  163  A    between atoms: _410  and  _412
REMARK  164  A    between atoms: _412  and  _413
REMARK  165  A    between atoms: _412  and  _415
REMARK  166  A    between atoms: _415  and  _416
REMARK  167  A    between atoms: _421  and  _423
REMARK  168  A    between atoms: _423  and  _424
REMARK  169  A    between atoms: _423  and  _426
REMARK  170  A    between atoms: _429  and  _431
REMARK  171  A    between atoms: _431  and  _432
REMARK  172  A    between atoms: _434  and  _436
REMARK  173  A    between atoms: _436  and  _437
REMARK  174  A    between atoms: _440  and  _442
REMARK  175  A    between atoms: _442  and  _443
REMARK  176  A    between atoms: _442  and  _445
REMARK  177  A    between atoms: _445  and  _446
REMARK  178  A    between atoms: _449  and  _451
REMARK  179  A    between atoms: _451  and  _452
REMARK  180  A    between atoms: _451  and  _454
REMARK  181  A    between atoms: _454  and  _455
REMARK  182  A    between atoms: _458  and  _460
REMARK  183  A    between atoms: _460  and  _461
REMARK  184  A    between atoms: _464  and  _466
REMARK  185  A    between atoms: _466  and  _467
REMARK  186  A    between atoms: _470  and  _472
REMARK  187  A    between atoms: _472  and  _473
REMARK  188  A    between atoms: _472  and  _475
REMARK  189  A    between atoms: _475  and  _476
REMARK  190  A    between atoms: _478  and  _480
REMARK  191  A    between atoms: _480  and  _481
REMARK  192  A    between atoms: _480  and  _483
REMARK  193  A    between atoms: _483  and  _484
REMARK  194  A    between atoms: _484  and  _485
REMARK  195  A    between atoms: _485  and  _486
REMARK  196  A    between atoms: _486  and  _487
REMARK  197  A    between atoms: _491  and  _493
REMARK  198  A    between atoms: _493  and  _494
REMARK  199  A    between atoms: _493  and  _496
REMARK  200  A    between atoms: _496  and  _497
REMARK  201  A    between atoms: _497  and  _498
REMARK  202  A    between atoms: _498  and  _499
REMARK  203  A    between atoms: _508  and  _510
REMARK  204  A    between atoms: _510  and  _511
REMARK  205  A    between atoms: _510  and  _513
REMARK  206  A    between atoms: _513  and  _514
REMARK  207  A    between atoms: _517  and  _519
REMARK  208  A    between atoms: _519  and  _520
REMARK  209  A    between atoms: _519  and  _522
REMARK  210  A    between atoms: _522  and  _523
REMARK  211  A    between atoms: _523  and  _524
REMARK  212  A    between atoms: _530  and  _531
REMARK  213  A    between atoms: _536  and  _538
REMARK  214  A    between atoms: _538  and  _539
REMARK  215  A    between atoms: _542  and  _544
REMARK  216  A    between atoms: _544  and  _545
REMARK  217  A    between atoms: _544  and  _547
REMARK  218  A    between atoms: _547  and  _548
REMARK  219  A    between atoms: _548  and  _549
REMARK  220  A    between atoms: _549  and  _550
REMARK  221  A    between atoms: _559  and  _561
REMARK  222  A    between atoms: _561  and  _562
REMARK  223  A    between atoms: _561  and  _564
REMARK  224  A    between atoms: _564  and  _565
REMARK  225  A    between atoms: _565  and  _566
REMARK  226  A    between atoms: _566  and  _567
REMARK  227  A    between atoms: _576  and  _578
REMARK  228  A    between atoms: _578  and  _579
REMARK  229  A    between atoms: _578  and  _581
REMARK  230  A    between atoms: _581  and  _582
REMARK  231  A    between atoms: _588  and  _590
REMARK  232  A    between atoms: _590  and  _591
REMARK  233  A    between atoms: _593  and  _595
REMARK  234  A    between atoms: _595  and  _596
REMARK  235  A    between atoms: _595  and  _598
REMARK  236  A    between atoms: _598  and  _599
REMARK  237  A    between atoms: _599  and  _600
REMARK  238  A    between atoms: _600  and  _601
REMARK                            x       y       z     vdW  Elec       q    Type
REMARK                         _______ _______ _______ _____ _____    ______ ____
ROOT
ATOM      1  C   PRO A   1       8.582  54.343 -13.915  0.00  0.00    +0.239 C 
ATOM      2  N   ALA A   2       8.982  55.207 -12.988  0.00  0.00    -0.298 N 
ATOM      3  H   ALA A   2       8.658  56.194 -13.031  0.00  0.00    +0.150 HD
ATOM      4  O   PRO A   1       9.001  53.174 -13.980  0.00  0.00    -0.274 OA
ENDROOT
BRANCH   1   6
ATOM      5  N   PRO A   1       6.687  55.910 -14.443  0.00  0.00    -0.210 NA
ATOM      6  CA  PRO A   1       7.574  54.847 -14.942  0.00  0.00    +0.149 C 
ATOM      7  CB  PRO A   1       8.306  55.527 -16.105  0.00  0.00    +0.028 C 
ATOM      8  CG  PRO A   1       7.313  56.521 -16.608  0.00  0.00    +0.021 C 
ATOM      9  CD  PRO A   1       6.649  57.060 -15.375  0.00  0.00    +0.089 C 
ENDBRANCH   1   6
BRANCH   2  10
ATOM     10  CA  ALA A   2       9.874  54.784 -11.908  0.00  0.00    +0.137 C 
ATOM     11  CB  ALA A   2      10.236  55.948 -11.016  0.00  0.00    +0.030 C 
BRANCH  10  12
ATOM     12  C   ALA A   2       9.291  53.623 -11.084  0.00  0.00    +0.227 C 
ATOM     13  O   ALA A   2      10.038  52.753 -10.597  0.00  0.00    -0.286 OA
ENDBRANCH  10  12
ENDBRANCH   2  10
TORSDOF 3
REMARK  Name = ../refined-set-2016/3hu3/3hu3_pocket.pdb
REMARK  238 active torsions:
REMARK  status: ('A' for Active; 'I' for Inactive)
REMARK    1  A    between atoms: _1  and  _3
REMARK    2  A    between atoms: _3  and  _4
REMARK    3  A    between atoms: _3  and  _6
REMARK    4  A    between atoms: _9  and  _11
REMARK    5  A    between atoms: _11  and  _12
REMARK    6  A    between atoms: _11  and  _14
REMARK    7  A    between atoms: _14  and  _15
REMARK    8  A    between atoms: _20  and  _21
REMARK    9  A    between atoms: _23  and  _25
REMARK   10  A    between atoms: _25  and  _26
REMARK   11  A    between atoms: _25  and  _28
REMARK   12  A    between atoms: _28  and  _29
REMARK   13  A    between atoms: _32  and  _34
REMARK   14  A    between atoms: _34  and  _35
REMARK   15  A    between atoms: _34  and  _37
REMARK   16  A    between atoms: _37  and  _38
REMARK   17  A    between atoms: _41  and  _43
REMARK   18  A    between atoms: _43  and  _44
REMARK   19  A    between atoms: _43  and  _46
REMARK   20  A    between atoms: _46  and  _47
REMARK   21  A    between atoms: _50  and  _52
REMARK   22  A    between atoms: _52  and  _53
REMARK   23  A    between atoms: _55  and  _57
REMARK   24  A    between atoms: _57  and  _58
REMARK   25  A    between atoms: _60  and  _62
REMARK   26  A    between atoms: _62  and  _63
REMARK   27  A    between atoms: _62  and  _65
REMARK   28  A    between atoms: _67  and  _69
REMARK   29  A    between atoms: _69  and  _70
REMARK   30  A    between atoms: _69  and  _72
REMARK   31  A    between atoms: _72  and  _73
REMARK   32  A    between atoms: _73  and  _74
REMARK   33  A    between atoms: _74  and  _75
REMARK   34  A    between atoms: _84  and  _86
REMARK   35  A    between atoms: _86  and  _87
REMARK   36  A    between atoms: _86  and  _89
REMARK   37  A    between atoms: _89  and  _90
REMARK   38  A    between atoms: _90  and  _91
REMARK   39  A    between atoms: _96  and  _98
REMARK   40  A    between atoms: _98  and  _99
REMARK   41  A    between atoms: _98  and  _101
REMARK   42  A    between atoms: _101  and  _102
REMARK   43  A    between atoms: _105  and  _107
REMARK   44  A    between atoms: _107  and  _108
REMARK   45  A    between atoms: _107  and  _110
REMARK   46  A    between atoms: _110  and  _111
REMARK   47  A    between atoms: _114  and  _116
REMARK   48  A    between atoms: _116  and  _117
REMARK   49  A    between atoms: _116  and  _119
REMARK   50  A    between atoms: _119  and  _120
REMARK   51  A    between atoms: _125  and  _126
REMARK   52  A    between atoms: _128  and  _130
REMARK   53  A    between atoms: _130  and  _131
REMARK   54  A    between atoms: _134  and  _135
REMARK   55  A    between atoms: _141  and  _142
REMARK   56  A    between atoms: _147  and  _149
REMARK   57  A    between atoms: _149  and  _150
REMARK   58  A    between atoms: _152  and  _154
REMARK   59  A    between atoms: _154  and  _155
REMARK   60  A    between atoms: _154  and  _157
REMARK   61  A    between atoms: _157  and  _158
REMARK   62  A    between atoms: _161  and  _163
REMARK   63  A    between atoms: _163  and  _164
REMARK   64  A    between atoms: _166  and  _168
REMARK   65  A    between atoms: _168  and  _169
REMARK   66  A    between atoms: _168  and  _171
REMARK   67  A    between atoms: _171  and  _172
REMARK   68  A    between atoms: _172  and  _173
REMARK   69  A    between atoms: _173  and  _174
REMARK   70  A    between atoms: _174  and  _175
REMARK   71  A    between atoms: _179  and  _181
REMARK   72  A    between atoms: _181  and  _182
REMARK   73  A    between atoms: _181  and  _184
REMARK   74  A    between atoms: _184  and  _185
REMARK   75  A    between atoms: _188  and  _190
REMARK   76  A    between atoms: _190  and  _191
REMARK   77  A    between atoms: _190  and  _193
REMARK   78  A    between atoms: _193  and  _194
REMARK   79  A    between atoms: _197  and  _199
REMARK   80  A    between atoms: _199  and  _200
REMARK   81  A    between atoms: _199  and  _202
REMARK   82  A    between atoms: _202  and  _203
REMARK   83  A    between atoms: _206  and  _208
REMARK   84  A    between atoms: _208  and  _209
REMARK   85  A    between atoms: _212  and  _214
REMARK   86  A    between atoms: _214  and  _215
REMARK   87  A    between atoms: _214  and  _217
REMARK   88  A    between atoms: _217  and  _218
REMARK   89  A    between atoms: _218  and  _219
REMARK   90  A    between atoms: _219  and  _220
REMARK   91  A    between atoms: _229  and  _231
REMARK   92  A    between atoms: _231  and  _232
REMARK   93  A    between atoms: _235  and  _237
REMARK   94  A    between atoms: _237  and  _238
REMARK   95  A    between atoms: _237  and  _240
REMARK   96  A    between atoms: _240  and  _241
REMARK   97  A    between atoms: _247  and  _249
REMARK   98  A    between atoms: _249  and  _250
REMARK   99  A    between atoms: _249  and  _252
REMARK  100  A    between atoms: _252  and  _253
REMARK  101  A    between atoms: _256  and  _258
REMARK  102  A    between atoms: _258  and  _259
REMARK  103  A    between atoms: _258  and  _261
REMARK  104  A    between atoms: _261  and  _262
REMARK  105  A    between atoms: _262  and  _263
REMARK  106  A    between atoms: _266  and  _268
REMARK  107  A    between atoms: _268  and  _269
REMARK  108  A    between atoms: _268  and  _271
REMARK  109  A    between atoms: _271  and  _272
REMARK  110  A    between atoms: _275  and  _277
REMARK  111  A    between atoms: _277  and  _278
REMARK  112  A    between atoms: _281  and  _283
REMARK  113  A    between atoms: _283  and  _284
REMARK  114  A    between atoms: _283  and  _286
REMARK  115  A    between atoms: _286  and  _287
REMARK  116  A    between atoms: _290  and  _292
REMARK  117  A    between atoms: _292  and  _293
REMARK  118  A    between atoms: _292  and  _295
REMARK  119  A    between atoms: _295  and  _296
REMARK  120  A    between atoms: _301  and  _303
REMARK  121  A    between atoms: _303  and  _304
REMARK  122  A    between atoms: _303  and  _306
REMARK  123  A    between atoms: _306  and  _307
REMARK  124  A    between atoms: _307  and  _308
REMARK  125  A    between atoms: _308  and  _309
REMARK  126  A    between atoms: _318  and  _320
REMARK  127  A    between atoms: _320  and  _321
REMARK  128  A    between atoms: _320  and  _323
REMARK  129  A    between atoms: _323  and  _324
REMARK  130  A    between atoms: _327  and  _329
REMARK  131  A    between atoms: _329  and  _330
REMARK  132  A    between atoms: _333  and  _334
REMARK  133  A    between atoms: _339  and  _341
REMARK  134  A    between atoms: _341  and  _342
REMARK  135  A    between atoms: _344  and  _346
REMARK  136  A    between atoms: _346  and  _347
REMARK  137  A    between atoms: _346  and  _349
REMARK  138  A    between atoms: _349  and  _350
REMARK  139  A    between atoms: _350  and  _351
REMARK  140  A    between atoms: _351  and  _352
REMARK  141  A    between atoms: _361  and  _363
REMARK  142  A    between atoms: _363  and  _364
REMARK  143  A    between atoms: _363  and  _366
REMARK  144  A    between atoms: _366  and  _367
REMARK  145  A    between atoms: _367  and  _368
REMARK  146  A    between atoms: _371  and  _373
REMARK  147  A    between atoms: _373  and  _374
REMARK  148  A    between atoms: _373  and  _376
REMARK  149  A    between atoms: _376  and  _377
REMARK  150  A    between atoms: _380  and  _382
REMARK  151  A    between atoms: _382  and  _383
REMARK  152  A    between atoms: _382  and  _385
REMARK  153  A    between atoms: _385  and  _386
REMARK  154  A    between atoms: _389  and  _391
REMARK  155  A    between atoms: _391  and  _392
REMARK  156  A    between atoms: _391  and  _394
REMARK  157  A    between atoms: _394  and  _395
REMARK  158  A    between atoms: _395  and  _396
REMARK  159  A    between atoms: _401  and  _403
REMARK  160  A    between atoms: _403  and  _404
REMARK  161  A    between atoms: _403  and  _406
REMARK  162  A    between atoms: _406  and  _407
REMARK  163  A    between atoms: _410  and  _412
REMARK  164  A    between atoms: _412  and  _413
REMARK  165  A    between atoms: _412  and  _415
REMARK  166  A    between atoms: _415  and  _416
REMARK  167  A    between atoms: _421  and  _423
REMARK  168  A    between atoms: _423  and  _424
REMARK  169  A    between atoms: _423  and  _426
REMARK  170  A    between atoms: _429  and  _431
REMARK  171  A    between atoms: _431  and  _432
REMARK  172  A    between atoms: _434  and  _436
REMARK  173  A    between atoms: _436  and  _437
REMARK  174  A    between atoms: _440  and  _442
REMARK  175  A    between atoms: _442  and  _443
REMARK  176  A    between atoms: _442  and  _445
REMARK  177  A    between atoms: _445  and  _446
REMARK  178  A    between atoms: _449  and  _451
REMARK  179  A    between atoms: _451  and  _452
REMARK  180  A    between atoms: _451  and  _454
REMARK  181  A    between atoms: _454  and  _455
REMARK  182  A    between atoms: _458  and  _460
REMARK  183  A    between atoms: _460  and  _461
REMARK  184  A    between atoms: _464  and  _466
REMARK  185  A    between atoms: _466  and  _467
REMARK  186  A    between atoms: _470  and  _472
REMARK  187  A    between atoms: _472  and  _473
REMARK  188  A    between atoms: _472  and  _475
REMARK  189  A    between atoms: _475  and  _476
REMARK  190  A    between atoms: _478  and  _480
REMARK  191  A    between atoms: _480  and  _481
REMARK  192  A    between atoms: _480  and  _483
REMARK  193  A    between atoms: _483  and  _484
REMARK  194  A    between atoms: _484  and  _485
REMARK  195  A    between atoms: _485  and  _486
REMARK  196  A    between atoms: _486  and  _487
REMARK  197  A    between atoms: _491  and  _493
REMARK  198  A    between atoms: _493  and  _494
REMARK  199  A    between atoms: _493  and  _496
REMARK  200  A    between atoms: _496  and  _497
REMARK  201  A    between atoms: _497  and  _498
REMARK  202  A    between atoms: _498  and  _499
REMARK  203  A    between atoms: _508  and  _510
REMARK  204  A    between atoms: _510  and  _511
REMARK  205  A    between atoms: _510  and  _513
REMARK  206  A    between atoms: _513  and  _514
REMARK  207  A    between atoms: _517  and  _519
REMARK  208  A    between atoms: _519  and  _520
REMARK  209  A    between atoms: _519  and  _522
REMARK  210  A    between atoms: _522  and  _523
REMARK  211  A    between atoms: _523  and  _524
REMARK  212  A    between atoms: _530  and  _531
REMARK  213  A    between atoms: _536  and  _538
REMARK  214  A    between atoms: _538  and  _539
REMARK  215  A    between atoms: _542  and  _544
REMARK  216  A    between atoms: _544  and  _545
REMARK  217  A    between atoms: _544  and  _547
REMARK  218  A    between atoms: _547  and  _548
REMARK  219  A    between atoms: _548  and  _549
REMARK  220  A    between atoms: _549  and  _550
REMARK  221  A    between atoms: _559  and  _561
REMARK  222  A    between atoms: _561  and  _562
REMARK  223  A    between atoms: _561  and  _564
REMARK  224  A    between atoms: _564  and  _565
REMARK  225  A    between atoms: _565  and  _566
REMARK  226  A    between atoms: _566  and  _567
REMARK  227  A    between atoms: _576  and  _578
REMARK  228  A    between atoms: _578  and  _579
REMARK  229  A    between atoms: _578  and  _581
REMARK  230  A    between atoms: _581  and  _582
REMARK  231  A    between atoms: _588  and  _590
REMARK  232  A    between atoms: _590  and  _591
REMARK  233  A    between atoms: _593  and  _595
REMARK  234  A    between atoms: _595  and  _596
REMARK  235  A    between atoms: _595  and  _598
REMARK  236  A    between atoms: _598  and  _599
REMARK  237  A    between atoms: _599  and  _600
REMARK  238  A    between atoms: _600  and  _601
REMARK                            x       y       z     vdW  Elec       q    Type
REMARK                         _______ _______ _______ _____ _____    ______ ____
ROOT
ATOM      1  C   ARG A   2      11.650  48.010 -12.060  0.00  0.00    +0.241 C 
ATOM      2  O   ARG A   2      11.019  47.740 -11.049  0.00  0.00    -0.273 OA
ATOM      3  N   PHE A   3      12.548  47.182 -12.584  0.00  0.00    -0.297 N 
ATOM      4  H   PHE A   3      12.887  47.362 -13.551  0.00  0.00    +0.150 HD
ENDROOT
BRANCH   3   5
ATOM      5  CA  PHE A   3      13.085  46.016 -11.850  0.00  0.00    +0.153 C 
BRANCH   5   6
ATOM      6  C   PHE A   3      13.039  46.223 -10.335  0.00  0.00    +0.241 C 
ATOM      7  N   GLY A   4      12.371  45.296  -9.636  0.00  0.00    -0.295 N 
ATOM      8  H   GLY A   4      11.874  44.543 -10.153  0.00  0.00    +0.150 HD
ATOM      9  O   PHE A   3      13.584  47.209  -9.825  0.00  0.00    -0.273 OA
BRANCH   7  10
ATOM     10  CA  GLY A   4      12.314  45.302  -8.175  0.00  0.00    +0.176 C 
BRANCH  10  11
ATOM     11  C   GLY A   4      11.167  46.095  -7.570  0.00  0.00    +0.243 C 
ATOM     12  O   GLY A   4      11.043  46.162  -6.345  0.00  0.00    -0.273 OA
ATOM     13  N   ARG A   5      10.364  46.741  -8.412  0.00  0.00    -0.298 N 
ATOM     14  H   ARG A   5      10.601  46.760  -9.424  0.00  0.00    +0.150 HD
BRANCH  13  15
ATOM     15  CA  ARG A   5       9.152  47.427  -7.948  0.00  0.00    +0.137 C 
BRANCH  15  16
ATOM     16  C   ARG A   5       7.968  46.689  -8.583  0.00  0.00    +0.227 C 
ATOM     17  O   ARG A   5       7.837  45.472  -8.390  0.00  0.00    -0.286 OA
ENDBRANCH  15  16
BRANCH  15  18
ATOM     18  CB  ARG A   5       9.210  48.938  -8.268  0.00  0.00    +0.031 C 
BRANCH  18  19
ATOM     19  CG  ARG A   5      10.498  49.596  -7.793  0.00  0.00    +0.045 C 
BRANCH  19  20
ATOM     20  CD  ARG A   5      10.501  51.100  -7.962  0.00  0.00    +0.174 C 
BRANCH  20  21
ATOM     21  NE  ARG A   5      11.663  51.707  -7.306  0.00  0.00    -0.265 N 
ATOM     22  HE  ARG A   5      11.753  51.593  -6.276  0.00  0.00    +0.259 HD
ATOM     23  CZ  ARG A   5      12.612  52.395  -7.940  0.00  0.00    +0.342 C 
ATOM     24  NH2 ARG A   5      13.635  52.905  -7.263  0.00  0.00    -0.292 N 
ATOM     25 HH21 ARG A   5      13.698  52.768  -6.234  0.00  0.00    +0.255 HD
ATOM     26 HH22 ARG A   5      14.373  53.441  -7.762  0.00  0.00    +0.255 HD
ATOM     27  NH1 ARG A   5      12.545  52.571  -9.255  0.00  0.00    -0.292 N 
ATOM     28 HH11 ARG A   5      13.288  53.109  -9.746  0.00  0.00    +0.255 HD
ATOM     29 HH12 ARG A   5      11.750  52.171  -9.793  0.00  0.00    +0.255 HD
ENDBRANCH  20  21
ENDBRANCH  19  20
ENDBRANCH  18  19
ENDBRANCH  15  18
ENDBRANCH  13  15
ENDBRANCH  10  11
ENDBRANCH   7  10
ENDBRANCH   5   6
BRANCH   5  30
ATOM     30  CB  PHE A   3      14.543  45.741 -12.268  0.00  0.00    +0.055 C 
BRANCH  30  31
ATOM     31  CG  PHE A   3      15.144  44.485 -11.642  0.00  0.00    -0.020 A 
ATOM     32  CD2 PHE A   3      15.643  44.507 -10.332  0.00  0.00    -0.004 A 
ATOM     33  CE2 PHE A   3      16.200  43.365  -9.755  0.00  0.00    -0.000 A 
ATOM     34  CZ  PHE A   3      16.261  42.189 -10.495  0.00  0.00    -0.000 A 
ATOM     35  CE1 PHE A   3      15.761  42.159 -11.805  0.00  0.00    -0.000 A 
ATOM     36  CD1 PHE A   3      15.207  43.304 -12.361  0.00  0.00    -0.004 A 
ENDBRANCH  30  31
ENDBRANCH   5  30
ENDBRANCH   3   5
BRANCH   1  37
ATOM     37  CA  ARG A   2      11.466  49.359 -12.766  0.00  0.00    +0.149 C 
BRANCH  37  39
ATOM     38  C   ARG A   1       9.082  49.394 -13.336  0.00  0.00    +0.238 C 
ATOM     39  N   ARG A   2      10.103  49.881 -12.639  0.00  0.00    -0.297 N 
ATOM     40  H   ARG A   2       9.928  50.664 -11.977  0.00  0.00    +0.150 HD
ATOM     41  O   ARG A   1       9.215  48.480 -14.130  0.00  0.00    -0.274 OA
BRANCH  38  42
ATOM     42  CA  ARG A   1       7.688  49.989 -13.042  0.00  0.00    +0.145 C 
BRANCH  42  43
ATOM     43  N   ARG A   1       7.700  51.210 -12.255  0.00  0.00    -0.238 NA
ATOM     44  H   ARG A   1       7.994  52.109 -12.687  0.00  0.00    +0.142 HD
ENDBRANCH  42  43
BRANCH  42  45
ATOM     45  CB  ARG A   1       6.808  50.165 -14.288  0.00  0.00    +0.030 C 
BRANCH  45  46
ATOM     46  CG  ARG A   1       5.309  50.433 -13.921  0.00  0.00    +0.045 C 
BRANCH  46  47
ATOM     47  CD  ARG A   1       4.537  51.039 -15.080  0.00  0.00    +0.174 C 
BRANCH  47  48
ATOM     48  NE  ARG A   1       3.952  50.003 -15.927  0.00  0.00    -0.265 N 
ATOM     49  HE  ARG A   1       4.065  49.012 -15.633  0.00  0.00    +0.259 HD
ATOM     50  CZ  ARG A   1       3.286  50.246 -17.048  0.00  0.00    +0.342 C 
ATOM     51  NH2 ARG A   1       3.130  51.501 -17.480  0.00  0.00    -0.292 N 
ATOM     52 HH21 ARG A   1       3.532  52.292 -16.937  0.00  0.00    +0.255 HD
ATOM     53 HH22 ARG A   1       2.607  51.687 -18.360  0.00  0.00    +0.255 HD
ATOM     54  NH1 ARG A   1       2.794  49.229 -17.744  0.00  0.00    -0.292 N 
ATOM     55 HH11 ARG A   1       2.932  48.254 -17.409  0.00  0.00    +0.255 HD
ATOM     56 HH12 ARG A   1       2.270  49.407 -18.625  0.00  0.00    +0.255 HD
ENDBRANCH  47  48
ENDBRANCH  46  47
ENDBRANCH  45  46
ENDBRANCH  42  45
ENDBRANCH  38  42
ENDBRANCH  37  39
BRANCH  37  57
ATOM     57  CB  ARG A   2      12.505  50.343 -12.186  0.00  0.00    +0.033 C 
BRANCH  57  58
ATOM     58  CG  ARG A   2      12.484  51.794 -12.708  0.00  0.00    +0.045 C 
BRANCH  58  59
ATOM     59  CD  ARG A   2      12.863  51.904 -14.192  0.00  0.00    +0.174 C 
BRANCH  59  60
ATOM     60  NE  ARG A   2      12.731  53.284 -14.673  0.00  0.00    -0.265 N 
ATOM     61  HE  ARG A   2      12.667  54.042 -13.963  0.00  0.00    +0.259 HD
ATOM     62  CZ  ARG A   2      12.688  53.629 -15.953  0.00  0.00    +0.342 C 
ATOM     63  NH2 ARG A   2      12.550  54.905 -16.299  0.00  0.00    -0.292 N 
ATOM     64 HH21 ARG A   2      12.475  55.638 -15.565  0.00  0.00    +0.255 HD
ATOM     65 HH22 ARG A   2      12.517  55.171 -17.304  0.00  0.00    +0.255 HD
ATOM     66  NH1 ARG A   2      12.775  52.697 -16.884  0.00  0.00    -0.292 N 
ATOM     67 HH11 ARG A   2      12.877  51.698 -16.612  0.00  0.00    +0.255 HD
ATOM     68 HH12 ARG A   2      12.742  52.961 -17.889  0.00  0.00    +0.255 HD
ENDBRANCH  59  60
ENDBRANCH  58  59
ENDBRANCH  57  58
ENDBRANCH  37  57
ENDBRANCH   1  37
TORSDOF 24
REMARK  Name = ../refined-set-2016/3hu3/3hu3_pocket.pdb
REMARK  238 active torsions:
REMARK  status: ('A' for Active; 'I' for Inactive)
REMARK    1  A    between atoms: _1  and  _3
REMARK    2  A    between atoms: _3  and  _4
REMARK    3  A    between atoms: _3  and  _6
REMARK    4  A    between atoms: _9  and  _11
REMARK    5  A    between atoms: _11  and  _12
REMARK    6  A    between atoms: _11  and  _14
REMARK    7  A    between atoms: _14  and  _15
REMARK    8  A    between atoms: _20  and  _21
REMARK    9  A    between atoms: _23  and  _25
REMARK   10  A    between atoms: _25  and  _26
REMARK   11  A    between atoms: _25  and  _28
REMARK   12  A    between atoms: _28  and  _29
REMARK   13  A    between atoms: _32  and  _34
REMARK   14  A    between atoms: _34  and  _35
REMARK   15  A    between atoms: _34  and  _37
REMARK   16  A    between atoms: _37  and  _38
REMARK   17  A    between atoms: _41  and  _43
REMARK   18  A    between atoms: _43  and  _44
REMARK   19  A    between atoms: _43  and  _46
REMARK   20  A    between atoms: _46  and  _47
REMARK   21  A    between atoms: _50  and  _52
REMARK   22  A    between atoms: _52  and  _53
REMARK   23  A    between atoms: _55  and  _57
REMARK   24  A    between atoms: _57  and  _58
REMARK   25  A    between atoms: _60  and  _62
REMARK   26  A    between atoms: _62  and  _63
REMARK   27  A    between atoms: _62  and  _65
REMARK   28  A    between atoms: _67  and  _69
REMARK   29  A    between atoms: _69  and  _70
REMARK   30  A    between atoms: _69  and  _72
REMARK   31  A    between atoms: _72  and  _73
REMARK   32  A    between atoms: _73  and  _74
REMARK   33  A    between atoms: _74  and  _75
REMARK   34  A    between atoms: _84  and  _86
REMARK   35  A    between atoms: _86  and  _87
REMARK   36  A    between atoms: _86  and  _89
REMARK   37  A    between atoms: _89  and  _90
REMARK   38  A    between atoms: _90  and  _91
REMARK   39  A    between atoms: _96  and  _98
REMARK   40  A    between atoms: _98  and  _99
REMARK   41  A    between atoms: _98  and  _101
REMARK   42  A    between atoms: _101  and  _102
REMARK   43  A    between atoms: _105  and  _107
REMARK   44  A    between atoms: _107  and  _108
REMARK   45  A    between atoms: _107  and  _110
REMARK   46  A    between atoms: _110  and  _111
REMARK   47  A    between atoms: _114  and  _116
REMARK   48  A    between atoms: _116  and  _117
REMARK   49  A    between atoms: _116  and  _119
REMARK   50  A    between atoms: _119  and  _120
REMARK   51  A    between atoms: _125  and  _126
REMARK   52  A    between atoms: _128  and  _130
REMARK   53  A    between atoms: _130  and  _131
REMARK   54  A    between atoms: _134  and  _135
REMARK   55  A    between atoms: _141  and  _142
REMARK   56  A    between atoms: _147  and  _149
REMARK   57  A    between atoms: _149  and  _150
REMARK   58  A    between atoms: _152  and  _154
REMARK   59  A    between atoms: _154  and  _155
REMARK   60  A    between atoms: _154  and  _157
REMARK   61  A    between atoms: _157  and  _158
REMARK   62  A    between atoms: _161  and  _163
REMARK   63  A    between atoms: _163  and  _164
REMARK   64  A    between atoms: _166  and  _168
REMARK   65  A    between atoms: _168  and  _169
REMARK   66  A    between atoms: _168  and  _171
REMARK   67  A    between atoms: _171  and  _172
REMARK   68  A    between atoms: _172  and  _173
REMARK   69  A    between atoms: _173  and  _174
REMARK   70  A    between atoms: _174  and  _175
REMARK   71  A    between atoms: _179  and  _181
REMARK   72  A    between atoms: _181  and  _182
REMARK   73  A    between atoms: _181  and  _184
REMARK   74  A    between atoms: _184  and  _185
REMARK   75  A    between atoms: _188  and  _190
REMARK   76  A    between atoms: _190  and  _191
REMARK   77  A    between atoms: _190  and  _193
REMARK   78  A    between atoms: _193  and  _194
REMARK   79  A    between atoms: _197  and  _199
REMARK   80  A    between atoms: _199  and  _200
REMARK   81  A    between atoms: _199  and  _202
REMARK   82  A    between atoms: _202  and  _203
REMARK   83  A    between atoms: _206  and  _208
REMARK   84  A    between atoms: _208  and  _209
REMARK   85  A    between atoms: _212  and  _214
REMARK   86  A    between atoms: _214  and  _215
REMARK   87  A    between atoms: _214  and  _217
REMARK   88  A    between atoms: _217  and  _218
REMARK   89  A    between atoms: _218  and  _219
REMARK   90  A    between atoms: _219  and  _220
REMARK   91  A    between atoms: _229  and  _231
REMARK   92  A    between atoms: _231  and  _232
REMARK   93  A    between atoms: _235  and  _237
REMARK   94  A    between atoms: _237  and  _238
REMARK   95  A    between atoms: _237  and  _240
REMARK   96  A    between atoms: _240  and  _241
REMARK   97  A    between atoms: _247  and  _249
REMARK   98  A    between atoms: _249  and  _250
REMARK   99  A    between atoms: _249  and  _252
REMARK  100  A    between atoms: _252  and  _253
REMARK  101  A    between atoms: _256  and  _258
REMARK  102  A    between atoms: _258  and  _259
REMARK  103  A    between atoms: _258  and  _261
REMARK  104  A    between atoms: _261  and  _262
REMARK  105  A    between atoms: _262  and  _263
REMARK  106  A    between atoms: _266  and  _268
REMARK  107  A    between atoms: _268  and  _269
REMARK  108  A    between atoms: _268  and  _271
REMARK  109  A    between atoms: _271  and  _272
REMARK  110  A    between atoms: _275  and  _277
REMARK  111  A    between atoms: _277  and  _278
REMARK  112  A    between atoms: _281  and  _283
REMARK  113  A    between atoms: _283  and  _284
REMARK  114  A    between atoms: _283  and  _286
REMARK  115  A    between atoms: _286  and  _287
REMARK  116  A    between atoms: _290  and  _292
REMARK  117  A    between atoms: _292  and  _293
REMARK  118  A    between atoms: _292  and  _295
REMARK  119  A    between atoms: _295  and  _296
REMARK  120  A    between atoms: _301  and  _303
REMARK  121  A    between atoms: _303  and  _304
REMARK  122  A    between atoms: _303  and  _306
REMARK  123  A    between atoms: _306  and  _307
REMARK  124  A    between atoms: _307  and  _308
REMARK  125  A    between atoms: _308  and  _309
REMARK  126  A    between atoms: _318  and  _320
REMARK  127  A    between atoms: _320  and  _321
REMARK  128  A    between atoms: _320  and  _323
REMARK  129  A    between atoms: _323  and  _324
REMARK  130  A    between atoms: _327  and  _329
REMARK  131  A    between atoms: _329  and  _330
REMARK  132  A    between atoms: _333  and  _334
REMARK  133  A    between atoms: _339  and  _341
REMARK  134  A    between atoms: _341  and  _342
REMARK  135  A    between atoms: _344  and  _346
REMARK  136  A    between atoms: _346  and  _347
REMARK  137  A    between atoms: _346  and  _349
REMARK  138  A    between atoms: _349  and  _350
REMARK  139  A    between atoms: _350  and  _351
REMARK  140  A    between atoms: _351  and  _352
REMARK  141  A    between atoms: _361  and  _363
REMARK  142  A    between atoms: _363  and  _364
REMARK  143  A    between atoms: _363  and  _366
REMARK  144  A    between atoms: _366  and  _367
REMARK  145  A    between atoms: _367  and  _368
REMARK  146  A    between atoms: _371  and  _373
REMARK  147  A    between atoms: _373  and  _374
REMARK  148  A    between atoms: _373  and  _376
REMARK  149  A    between atoms: _376  and  _377
REMARK  150  A    between atoms: _380  and  _382
REMARK  151  A    between atoms: _382  and  _383
REMARK  152  A    between atoms: _382  and  _385
REMARK  153  A    between atoms: _385  and  _386
REMARK  154  A    between atoms: _389  and  _391
REMARK  155  A    between atoms: _391  and  _392
REMARK  156  A    between atoms: _391  and  _394
REMARK  157  A    between atoms: _394  and  _395
REMARK  158  A    between atoms: _395  and  _396
REMARK  159  A    between atoms: _401  and  _403
REMARK  160  A    between atoms: _403  and  _404
REMARK  161  A    between atoms: _403  and  _406
REMARK  162  A    between atoms: _406  and  _407
REMARK  163  A    between atoms: _410  and  _412
REMARK  164  A    between atoms: _412  and  _413
REMARK  165  A    between atoms: _412  and  _415
REMARK  166  A    between atoms: _415  and  _416
REMARK  167  A    between atoms: _421  and  _423
REMARK  168  A    between atoms: _423  and  _424
REMARK  169  A    between atoms: _423  and  _426
REMARK  170  A    between atoms: _429  and  _431
REMARK  171  A    between atoms: _431  and  _432
REMARK  172  A    between atoms: _434  and  _436
REMARK  173  A    between atoms: _436  and  _437
REMARK  174  A    between atoms: _440  and  _442
REMARK  175  A    between atoms: _442  and  _443
REMARK  176  A    between atoms: _442  and  _445
REMARK  177  A    between atoms: _445  and  _446
REMARK  178  A    between atoms: _449  and  _451
REMARK  179  A    between atoms: _451  and  _452
REMARK  180  A    between atoms: _451  and  _454
REMARK  181  A    between atoms: _454  and  _455
REMARK  182  A    between atoms: _458  and  _460
REMARK  183  A    between atoms: _460  and  _461
REMARK  184  A    between atoms: _464  and  _466
REMARK  185  A    between atoms: _466  and  _467
REMARK  186  A    between atoms: _470  and  _472
REMARK  187  A    between atoms: _472  and  _473
REMARK  188  A    between atoms: _472  and  _475
REMARK  189  A    between atoms: _475  and  _476
REMARK  190  A    between atoms: _478  and  _480
REMARK  191  A    between atoms: _480  and  _481
REMARK  192  A    between atoms: _480  and  _483
REMARK  193  A    between atoms: _483  and  _484
REMARK  194  A    between atoms: _484  and  _485
REMARK  195  A    between atoms: _485  and  _486
REMARK  196  A    between atoms: _486  and  _487
REMARK  197  A    between atoms: _491  and  _493
REMARK  198  A    between atoms: _493  and  _494
REMARK  199  A    between atoms: _493  and  _496
REMARK  200  A    between atoms: _496  and  _497
REMARK  201  A    between atoms: _497  and  _498
REMARK  202  A    between atoms: _498  and  _499
REMARK  203  A    between atoms: _508  and  _510
REMARK  204  A    between atoms: _510  and  _511
REMARK  205  A    between atoms: _510  and  _513
REMARK  206  A    between atoms: _513  and  _514
REMARK  207  A    between atoms: _517  and  _519
REMARK  208  A    between atoms: _519  and  _520
REMARK  209  A    between atoms: _519  and  _522
REMARK  210  A    between atoms: _522  and  _523
REMARK  211  A    between atoms: _523  and  _524
REMARK  212  A    between atoms: _530  and  _531
REMARK  213  A    between atoms: _536  and  _538
REMARK  214  A    between atoms: _538  and  _539
REMARK  215  A    between atoms: _542  and  _544
REMARK  216  A    between atoms: _544  and  _545
REMARK  217  A    between atoms: _544  and  _547
REMARK  218  A    between atoms: _547  and  _548
REMARK  219  A    between atoms: _548  and  _549
REMARK  220  A    between atoms: _549  and  _550
REMARK  221  A    between atoms: _559  and  _561
REMARK  222  A    between atoms: _561  and  _562
REMARK  223  A    between atoms: _561  and  _564
REMARK  224  A    between atoms: _564  and  _565
REMARK  225  A    between atoms: _565  and  _566
REMARK  226  A    between atoms: _566  and  _567
REMARK  227  A    between atoms: _576  and  _578
REMARK  228  A    between atoms: _578  and  _579
REMARK  229  A    between atoms: _578  and  _581
REMARK  230  A    between atoms: _581  and  _582
REMARK  231  A    between atoms: _588  and  _590
REMARK  232  A    between atoms: _590  and  _591
REMARK  233  A    between atoms: _593  and  _595
REMARK  234  A    between atoms: _595  and  _596
REMARK  235  A    between atoms: _595  and  _598
REMARK  236  A    between atoms: _598  and  _599
REMARK  237  A    between atoms: _599  and  _600
REMARK  238  A    between atoms: _600  and  _601
REMARK                            x       y       z     vdW  Elec       q    Type
REMARK                         _______ _______ _______ _____ _____    ______ ____
ROOT
ATOM      1 MG   UNL     1      19.206  52.831  -9.062  0.00  0.00    +0.000 Mg
ATOM      2  O   UNL     1      17.799  53.608  -7.862  0.00  0.00    +0.000 OA
ATOM      3  O   UNL     1      20.234  54.576  -9.189  0.00  0.00    +0.000 OA
ENDROOT
TORSDOF 0
REMARK  Name = ../refined-set-2016/3hu3/3hu3_pocket.pdb
REMARK  238 active torsions:
REMARK  status: ('A' for Active; 'I' for Inactive)
REMARK    1  A    between atoms: _1  and  _3
REMARK    2  A    between atoms: _3  and  _4
REMARK    3  A    between atoms: _3  and  _6
REMARK    4  A    between atoms: _9  and  _11
REMARK    5  A    between atoms: _11  and  _12
REMARK    6  A    between atoms: _11  and  _14
REMARK    7  A    between atoms: _14  and  _15
REMARK    8  A    between atoms: _20  and  _21
REMARK    9  A    between atoms: _23  and  _25
REMARK   10  A    between atoms: _25  and  _26
REMARK   11  A    between atoms: _25  and  _28
REMARK   12  A    between atoms: _28  and  _29
REMARK   13  A    between atoms: _32  and  _34
REMARK   14  A    between atoms: _34  and  _35
REMARK   15  A    between atoms: _34  and  _37
REMARK   16  A    between atoms: _37  and  _38
REMARK   17  A    between atoms: _41  and  _43
REMARK   18  A    between atoms: _43  and  _44
REMARK   19  A    between atoms: _43  and  _46
REMARK   20  A    between atoms: _46  and  _47
REMARK   21  A    between atoms: _50  and  _52
REMARK   22  A    between atoms: _52  and  _53
REMARK   23  A    between atoms: _55  and  _57
REMARK   24  A    between atoms: _57  and  _58
REMARK   25  A    between atoms: _60  and  _62
REMARK   26  A    between atoms: _62  and  _63
REMARK   27  A    between atoms: _62  and  _65
REMARK   28  A    between atoms: _67  and  _69
REMARK   29  A    between atoms: _69  and  _70
REMARK   30  A    between atoms: _69  and  _72
REMARK   31  A    between atoms: _72  and  _73
REMARK   32  A    between atoms: _73  and  _74
REMARK   33  A    between atoms: _74  and  _75
REMARK   34  A    between atoms: _84  and  _86
REMARK   35  A    between atoms: _86  and  _87
REMARK   36  A    between atoms: _86  and  _89
REMARK   37  A    between atoms: _89  and  _90
REMARK   38  A    between atoms: _90  and  _91
REMARK   39  A    between atoms: _96  and  _98
REMARK   40  A    between atoms: _98  and  _99
REMARK   41  A    between atoms: _98  and  _101
REMARK   42  A    between atoms: _101  and  _102
REMARK   43  A    between atoms: _105  and  _107
REMARK   44  A    between atoms: _107  and  _108
REMARK   45  A    between atoms: _107  and  _110
REMARK   46  A    between atoms: _110  and  _111
REMARK   47  A    between atoms: _114  and  _116
REMARK   48  A    between atoms: _116  and  _117
REMARK   49  A    between atoms: _116  and  _119
REMARK   50  A    between atoms: _119  and  _120
REMARK   51  A    between atoms: _125  and  _126
REMARK   52  A    between atoms: _128  and  _130
REMARK   53  A    between atoms: _130  and  _131
REMARK   54  A    between atoms: _134  and  _135
REMARK   55  A    between atoms: _141  and  _142
REMARK   56  A    between atoms: _147  and  _149
REMARK   57  A    between atoms: _149  and  _150
REMARK   58  A    between atoms: _152  and  _154
REMARK   59  A    between atoms: _154  and  _155
REMARK   60  A    between atoms: _154  and  _157
REMARK   61  A    between atoms: _157  and  _158
REMARK   62  A    between atoms: _161  and  _163
REMARK   63  A    between atoms: _163  and  _164
REMARK   64  A    between atoms: _166  and  _168
REMARK   65  A    between atoms: _168  and  _169
REMARK   66  A    between atoms: _168  and  _171
REMARK   67  A    between atoms: _171  and  _172
REMARK   68  A    between atoms: _172  and  _173
REMARK   69  A    between atoms: _173  and  _174
REMARK   70  A    between atoms: _174  and  _175
REMARK   71  A    between atoms: _179  and  _181
REMARK   72  A    between atoms: _181  and  _182
REMARK   73  A    between atoms: _181  and  _184
REMARK   74  A    between atoms: _184  and  _185
REMARK   75  A    between atoms: _188  and  _190
REMARK   76  A    between atoms: _190  and  _191
REMARK   77  A    between atoms: _190  and  _193
REMARK   78  A    between atoms: _193  and  _194
REMARK   79  A    between atoms: _197  and  _199
REMARK   80  A    between atoms: _199  and  _200
REMARK   81  A    between atoms: _199  and  _202
REMARK   82  A    between atoms: _202  and  _203
REMARK   83  A    between atoms: _206  and  _208
REMARK   84  A    between atoms: _208  and  _209
REMARK   85  A    between atoms: _212  and  _214
REMARK   86  A    between atoms: _214  and  _215
REMARK   87  A    between atoms: _214  and  _217
REMARK   88  A    between atoms: _217  and  _218
REMARK   89  A    between atoms: _218  and  _219
REMARK   90  A    between atoms: _219  and  _220
REMARK   91  A    between atoms: _229  and  _231
REMARK   92  A    between atoms: _231  and  _232
REMARK   93  A    between atoms: _235  and  _237
REMARK   94  A    between atoms: _237  and  _238
REMARK   95  A    between atoms: _237  and  _240
REMARK   96  A    between atoms: _240  and  _241
REMARK   97  A    between atoms: _247  and  _249
REMARK   98  A    between atoms: _249  and  _250
REMARK   99  A    between atoms: _249  and  _252
REMARK  100  A    between atoms: _252  and  _253
REMARK  101  A    between atoms: _256  and  _258
REMARK  102  A    between atoms: _258  and  _259
REMARK  103  A    between atoms: _258  and  _261
REMARK  104  A    between atoms: _261  and  _262
REMARK  105  A    between atoms: _262  and  _263
REMARK  106  A    between atoms: _266  and  _268
REMARK  107  A    between atoms: _268  and  _269
REMARK  108  A    between atoms: _268  and  _271
REMARK  109  A    between atoms: _271  and  _272
REMARK  110  A    between atoms: _275  and  _277
REMARK  111  A    between atoms: _277  and  _278
REMARK  112  A    between atoms: _281  and  _283
REMARK  113  A    between atoms: _283  and  _284
REMARK  114  A    between atoms: _283  and  _286
REMARK  115  A    between atoms: _286  and  _287
REMARK  116  A    between atoms: _290  and  _292
REMARK  117  A    between atoms: _292  and  _293
REMARK  118  A    between atoms: _292  and  _295
REMARK  119  A    between atoms: _295  and  _296
REMARK  120  A    between atoms: _301  and  _303
REMARK  121  A    between atoms: _303  and  _304
REMARK  122  A    between atoms: _303  and  _306
REMARK  123  A    between atoms: _306  and  _307
REMARK  124  A    between atoms: _307  and  _308
REMARK  125  A    between atoms: _308  and  _309
REMARK  126  A    between atoms: _318  and  _320
REMARK  127  A    between atoms: _320  and  _321
REMARK  128  A    between atoms: _320  and  _323
REMARK  129  A    between atoms: _323  and  _324
REMARK  130  A    between atoms: _327  and  _329
REMARK  131  A    between atoms: _329  and  _330
REMARK  132  A    between atoms: _333  and  _334
REMARK  133  A    between atoms: _339  and  _341
REMARK  134  A    between atoms: _341  and  _342
REMARK  135  A    between atoms: _344  and  _346
REMARK  136  A    between atoms: _346  and  _347
REMARK  137  A    between atoms: _346  and  _349
REMARK  138  A    between atoms: _349  and  _350
REMARK  139  A    between atoms: _350  and  _351
REMARK  140  A    between atoms: _351  and  _352
REMARK  141  A    between atoms: _361  and  _363
REMARK  142  A    between atoms: _363  and  _364
REMARK  143  A    between atoms: _363  and  _366
REMARK  144  A    between atoms: _366  and  _367
REMARK  145  A    between atoms: _367  and  _368
REMARK  146  A    between atoms: _371  and  _373
REMARK  147  A    between atoms: _373  and  _374
REMARK  148  A    between atoms: _373  and  _376
REMARK  149  A    between atoms: _376  and  _377
REMARK  150  A    between atoms: _380  and  _382
REMARK  151  A    between atoms: _382  and  _383
REMARK  152  A    between atoms: _382  and  _385
REMARK  153  A    between atoms: _385  and  _386
REMARK  154  A    between atoms: _389  and  _391
REMARK  155  A    between atoms: _391  and  _392
REMARK  156  A    between atoms: _391  and  _394
REMARK  157  A    between atoms: _394  and  _395
REMARK  158  A    between atoms: _395  and  _396
REMARK  159  A    between atoms: _401  and  _403
REMARK  160  A    between atoms: _403  and  _404
REMARK  161  A    between atoms: _403  and  _406
REMARK  162  A    between atoms: _406  and  _407
REMARK  163  A    between atoms: _410  and  _412
REMARK  164  A    between atoms: _412  and  _413
REMARK  165  A    between atoms: _412  and  _415
REMARK  166  A    between atoms: _415  and  _416
REMARK  167  A    between atoms: _421  and  _423
REMARK  168  A    between atoms: _423  and  _424
REMARK  169  A    between atoms: _423  and  _426
REMARK  170  A    between atoms: _429  and  _431
REMARK  171  A    between atoms: _431  and  _432
REMARK  172  A    between atoms: _434  and  _436
REMARK  173  A    between atoms: _436  and  _437
REMARK  174  A    between atoms: _440  and  _442
REMARK  175  A    between atoms: _442  and  _443
REMARK  176  A    between atoms: _442  and  _445
REMARK  177  A    between atoms: _445  and  _446
REMARK  178  A    between atoms: _449  and  _451
REMARK  179  A    between atoms: _451  and  _452
REMARK  180  A    between atoms: _451  and  _454
REMARK  181  A    between atoms: _454  and  _455
REMARK  182  A    between atoms: _458  and  _460
REMARK  183  A    between atoms: _460  and  _461
REMARK  184  A    between atoms: _464  and  _466
REMARK  185  A    between atoms: _466  and  _467
REMARK  186  A    between atoms: _470  and  _472
REMARK  187  A    between atoms: _472  and  _473
REMARK  188  A    between atoms: _472  and  _475
REMARK  189  A    between atoms: _475  and  _476
REMARK  190  A    between atoms: _478  and  _480
REMARK  191  A    between atoms: _480  and  _481
REMARK  192  A    between atoms: _480  and  _483
REMARK  193  A    between atoms: _483  and  _484
REMARK  194  A    between atoms: _484  and  _485
REMARK  195  A    between atoms: _485  and  _486
REMARK  196  A    between atoms: _486  and  _487
REMARK  197  A    between atoms: _491  and  _493
REMARK  198  A    between atoms: _493  and  _494
REMARK  199  A    between atoms: _493  and  _496
REMARK  200  A    between atoms: _496  and  _497
REMARK  201  A    between atoms: _497  and  _498
REMARK  202  A    between atoms: _498  and  _499
REMARK  203  A    between atoms: _508  and  _510
REMARK  204  A    between atoms: _510  and  _511
REMARK  205  A    between atoms: _510  and  _513
REMARK  206  A    between atoms: _513  and  _514
REMARK  207  A    between atoms: _517  and  _519
REMARK  208  A    between atoms: _519  and  _520
REMARK  209  A    between atoms: _519  and  _522
REMARK  210  A    between atoms: _522  and  _523
REMARK  211  A    between atoms: _523  and  _524
REMARK  212  A    between atoms: _530  and  _531
REMARK  213  A    between atoms: _536  and  _538
REMARK  214  A    between atoms: _538  and  _539
REMARK  215  A    between atoms: _542  and  _544
REMARK  216  A    between atoms: _544  and  _545
REMARK  217  A    between atoms: _544  and  _547
REMARK  218  A    between atoms: _547  and  _548
REMARK  219  A    between atoms: _548  and  _549
REMARK  220  A    between atoms: _549  and  _550
REMARK  221  A    between atoms: _559  and  _561
REMARK  222  A    between atoms: _561  and  _562
REMARK  223  A    between atoms: _561  and  _564
REMARK  224  A    between atoms: _564  and  _565
REMARK  225  A    between atoms: _565  and  _566
REMARK  226  A    between atoms: _566  and  _567
REMARK  227  A    between atoms: _576  and  _578
REMARK  228  A    between atoms: _578  and  _579
REMARK  229  A    between atoms: _578  and  _581
REMARK  230  A    between atoms: _581  and  _582
REMARK  231  A    between atoms: _588  and  _590
REMARK  232  A    between atoms: _590  and  _591
REMARK  233  A    between atoms: _593  and  _595
REMARK  234  A    between atoms: _595  and  _596
REMARK  235  A    between atoms: _595  and  _598
REMARK  236  A    between atoms: _598  and  _599
REMARK  237  A    between atoms: _599  and  _600
REMARK  238  A    between atoms: _600  and  _601
REMARK                            x       y       z     vdW  Elec       q    Type
REMARK                         _______ _______ _______ _____ _____    ______ ____
ROOT
ATOM      1  O   HOH     1      18.168  50.990  -8.496  0.00  0.00    +0.000 OA
ENDROOT
TORSDOF 0
REMARK  Name = ../refined-set-2016/3hu3/3hu3_pocket.pdb
REMARK  238 active torsions:
REMARK  status: ('A' for Active; 'I' for Inactive)
REMARK    1  A    between atoms: _1  and  _3
REMARK    2  A    between atoms: _3  and  _4
REMARK    3  A    between atoms: _3  and  _6
REMARK    4  A    between atoms: _9  and  _11
REMARK    5  A    between atoms: _11  and  _12
REMARK    6  A    between atoms: _11  and  _14
REMARK    7  A    between atoms: _14  and  _15
REMARK    8  A    between atoms: _20  and  _21
REMARK    9  A    between atoms: _23  and  _25
REMARK   10  A    between atoms: _25  and  _26
REMARK   11  A    between atoms: _25  and  _28
REMARK   12  A    between atoms: _28  and  _29
REMARK   13  A    between atoms: _32  and  _34
REMARK   14  A    between atoms: _34  and  _35
REMARK   15  A    between atoms: _34  and  _37
REMARK   16  A    between atoms: _37  and  _38
REMARK   17  A    between atoms: _41  and  _43
REMARK   18  A    between atoms: _43  and  _44
REMARK   19  A    between atoms: _43  and  _46
REMARK   20  A    between atoms: _46  and  _47
REMARK   21  A    between atoms: _50  and  _52
REMARK   22  A    between atoms: _52  and  _53
REMARK   23  A    between atoms: _55  and  _57
REMARK   24  A    between atoms: _57  and  _58
REMARK   25  A    between atoms: _60  and  _62
REMARK   26  A    between atoms: _62  and  _63
REMARK   27  A    between atoms: _62  and  _65
REMARK   28  A    between atoms: _67  and  _69
REMARK   29  A    between atoms: _69  and  _70
REMARK   30  A    between atoms: _69  and  _72
REMARK   31  A    between atoms: _72  and  _73
REMARK   32  A    between atoms: _73  and  _74
REMARK   33  A    between atoms: _74  and  _75
REMARK   34  A    between atoms: _84  and  _86
REMARK   35  A    between atoms: _86  and  _87
REMARK   36  A    between atoms: _86  and  _89
REMARK   37  A    between atoms: _89  and  _90
REMARK   38  A    between atoms: _90  and  _91
REMARK   39  A    between atoms: _96  and  _98
REMARK   40  A    between atoms: _98  and  _99
REMARK   41  A    between atoms: _98  and  _101
REMARK   42  A    between atoms: _101  and  _102
REMARK   43  A    between atoms: _105  and  _107
REMARK   44  A    between atoms: _107  and  _108
REMARK   45  A    between atoms: _107  and  _110
REMARK   46  A    between atoms: _110  and  _111
REMARK   47  A    between atoms: _114  and  _116
REMARK   48  A    between atoms: _116  and  _117
REMARK   49  A    between atoms: _116  and  _119
REMARK   50  A    between atoms: _119  and  _120
REMARK   51  A    between atoms: _125  and  _126
REMARK   52  A    between atoms: _128  and  _130
REMARK   53  A    between atoms: _130  and  _131
REMARK   54  A    between atoms: _134  and  _135
REMARK   55  A    between atoms: _141  and  _142
REMARK   56  A    between atoms: _147  and  _149
REMARK   57  A    between atoms: _149  and  _150
REMARK   58  A    between atoms: _152  and  _154
REMARK   59  A    between atoms: _154  and  _155
REMARK   60  A    between atoms: _154  and  _157
REMARK   61  A    between atoms: _157  and  _158
REMARK   62  A    between atoms: _161  and  _163
REMARK   63  A    between atoms: _163  and  _164
REMARK   64  A    between atoms: _166  and  _168
REMARK   65  A    between atoms: _168  and  _169
REMARK   66  A    between atoms: _168  and  _171
REMARK   67  A    between atoms: _171  and  _172
REMARK   68  A    between atoms: _172  and  _173
REMARK   69  A    between atoms: _173  and  _174
REMARK   70  A    between atoms: _174  and  _175
REMARK   71  A    between atoms: _179  and  _181
REMARK   72  A    between atoms: _181  and  _182
REMARK   73  A    between atoms: _181  and  _184
REMARK   74  A    between atoms: _184  and  _185
REMARK   75  A    between atoms: _188  and  _190
REMARK   76  A    between atoms: _190  and  _191
REMARK   77  A    between atoms: _190  and  _193
REMARK   78  A    between atoms: _193  and  _194
REMARK   79  A    between atoms: _197  and  _199
REMARK   80  A    between atoms: _199  and  _200
REMARK   81  A    between atoms: _199  and  _202
REMARK   82  A    between atoms: _202  and  _203
REMARK   83  A    between atoms: _206  and  _208
REMARK   84  A    between atoms: _208  and  _209
REMARK   85  A    between atoms: _212  and  _214
REMARK   86  A    between atoms: _214  and  _215
REMARK   87  A    between atoms: _214  and  _217
REMARK   88  A    between atoms: _217  and  _218
REMARK   89  A    between atoms: _218  and  _219
REMARK   90  A    between atoms: _219  and  _220
REMARK   91  A    between atoms: _229  and  _231
REMARK   92  A    between atoms: _231  and  _232
REMARK   93  A    between atoms: _235  and  _237
REMARK   94  A    between atoms: _237  and  _238
REMARK   95  A    between atoms: _237  and  _240
REMARK   96  A    between atoms: _240  and  _241
REMARK   97  A    between atoms: _247  and  _249
REMARK   98  A    between atoms: _249  and  _250
REMARK   99  A    between atoms: _249  and  _252
REMARK  100  A    between atoms: _252  and  _253
REMARK  101  A    between atoms: _256  and  _258
REMARK  102  A    between atoms: _258  and  _259
REMARK  103  A    between atoms: _258  and  _261
REMARK  104  A    between atoms: _261  and  _262
REMARK  105  A    between atoms: _262  and  _263
REMARK  106  A    between atoms: _266  and  _268
REMARK  107  A    between atoms: _268  and  _269
REMARK  108  A    between atoms: _268  and  _271
REMARK  109  A    between atoms: _271  and  _272
REMARK  110  A    between atoms: _275  and  _277
REMARK  111  A    between atoms: _277  and  _278
REMARK  112  A    between atoms: _281  and  _283
REMARK  113  A    between atoms: _283  and  _284
REMARK  114  A    between atoms: _283  and  _286
REMARK  115  A    between atoms: _286  and  _287
REMARK  116  A    between atoms: _290  and  _292
REMARK  117  A    between atoms: _292  and  _293
REMARK  118  A    between atoms: _292  and  _295
REMARK  119  A    between atoms: _295  and  _296
REMARK  120  A    between atoms: _301  and  _303
REMARK  121  A    between atoms: _303  and  _304
REMARK  122  A    between atoms: _303  and  _306
REMARK  123  A    between atoms: _306  and  _307
REMARK  124  A    between atoms: _307  and  _308
REMARK  125  A    between atoms: _308  and  _309
REMARK  126  A    between atoms: _318  and  _320
REMARK  127  A    between atoms: _320  and  _321
REMARK  128  A    between atoms: _320  and  _323
REMARK  129  A    between atoms: _323  and  _324
REMARK  130  A    between atoms: _327  and  _329
REMARK  131  A    between atoms: _329  and  _330
REMARK  132  A    between atoms: _333  and  _334
REMARK  133  A    between atoms: _339  and  _341
REMARK  134  A    between atoms: _341  and  _342
REMARK  135  A    between atoms: _344  and  _346
REMARK  136  A    between atoms: _346  and  _347
REMARK  137  A    between atoms: _346  and  _349
REMARK  138  A    between atoms: _349  and  _350
REMARK  139  A    between atoms: _350  and  _351
REMARK  140  A    between atoms: _351  and  _352
REMARK  141  A    between atoms: _361  and  _363
REMARK  142  A    between atoms: _363  and  _364
REMARK  143  A    between atoms: _363  and  _366
REMARK  144  A    between atoms: _366  and  _367
REMARK  145  A    between atoms: _367  and  _368
REMARK  146  A    between atoms: _371  and  _373
REMARK  147  A    between atoms: _373  and  _374
REMARK  148  A    between atoms: _373  and  _376
REMARK  149  A    between atoms: _376  and  _377
REMARK  150  A    between atoms: _380  and  _382
REMARK  151  A    between atoms: _382  and  _383
REMARK  152  A    between atoms: _382  and  _385
REMARK  153  A    between atoms: _385  and  _386
REMARK  154  A    between atoms: _389  and  _391
REMARK  155  A    between atoms: _391  and  _392
REMARK  156  A    between atoms: _391  and  _394
REMARK  157  A    between atoms: _394  and  _395
REMARK  158  A    between atoms: _395  and  _396
REMARK  159  A    between atoms: _401  and  _403
REMARK  160  A    between atoms: _403  and  _404
REMARK  161  A    between atoms: _403  and  _406
REMARK  162  A    between atoms: _406  and  _407
REMARK  163  A    between atoms: _410  and  _412
REMARK  164  A    between atoms: _412  and  _413
REMARK  165  A    between atoms: _412  and  _415
REMARK  166  A    between atoms: _415  and  _416
REMARK  167  A    between atoms: _421  and  _423
REMARK  168  A    between atoms: _423  and  _424
REMARK  169  A    between atoms: _423  and  _426
REMARK  170  A    between atoms: _429  and  _431
REMARK  171  A    between atoms: _431  and  _432
REMARK  172  A    between atoms: _434  and  _436
REMARK  173  A    between atoms: _436  and  _437
REMARK  174  A    between atoms: _440  and  _442
REMARK  175  A    between atoms: _442  and  _443
REMARK  176  A    between atoms: _442  and  _445
REMARK  177  A    between atoms: _445  and  _446
REMARK  178  A    between atoms: _449  and  _451
REMARK  179  A    between atoms: _451  and  _452
REMARK  180  A    between atoms: _451  and  _454
REMARK  181  A    between atoms: _454  and  _455
REMARK  182  A    between atoms: _458  and  _460
REMARK  183  A    between atoms: _460  and  _461
REMARK  184  A    between atoms: _464  and  _466
REMARK  185  A    between atoms: _466  and  _467
REMARK  186  A    between atoms: _470  and  _472
REMARK  187  A    between atoms: _472  and  _473
REMARK  188  A    between atoms: _472  and  _475
REMARK  189  A    between atoms: _475  and  _476
REMARK  190  A    between atoms: _478  and  _480
REMARK  191  A    between atoms: _480  and  _481
REMARK  192  A    between atoms: _480  and  _483
REMARK  193  A    between atoms: _483  and  _484
REMARK  194  A    between atoms: _484  and  _485
REMARK  195  A    between atoms: _485  and  _486
REMARK  196  A    between atoms: _486  and  _487
REMARK  197  A    between atoms: _491  and  _493
REMARK  198  A    between atoms: _493  and  _494
REMARK  199  A    between atoms: _493  and  _496
REMARK  200  A    between atoms: _496  and  _497
REMARK  201  A    between atoms: _497  and  _498
REMARK  202  A    between atoms: _498  and  _499
REMARK  203  A    between atoms: _508  and  _510
REMARK  204  A    between atoms: _510  and  _511
REMARK  205  A    between atoms: _510  and  _513
REMARK  206  A    between atoms: _513  and  _514
REMARK  207  A    between atoms: _517  and  _519
REMARK  208  A    between atoms: _519  and  _520
REMARK  209  A    between atoms: _519  and  _522
REMARK  210  A    between atoms: _522  and  _523
REMARK  211  A    between atoms: _523  and  _524
REMARK  212  A    between atoms: _530  and  _531
REMARK  213  A    between atoms: _536  and  _538
REMARK  214  A    between atoms: _538  and  _539
REMARK  215  A    between atoms: _542  and  _544
REMARK  216  A    between atoms: _544  and  _545
REMARK  217  A    between atoms: _544  and  _547
REMARK  218  A    between atoms: _547  and  _548
REMARK  219  A    between atoms: _548  and  _549
REMARK  220  A    between atoms: _549  and  _550
REMARK  221  A    between atoms: _559  and  _561
REMARK  222  A    between atoms: _561  and  _562
REMARK  223  A    between atoms: _561  and  _564
REMARK  224  A    between atoms: _564  and  _565
REMARK  225  A    between atoms: _565  and  _566
REMARK  226  A    between atoms: _566  and  _567
REMARK  227  A    between atoms: _576  and  _578
REMARK  228  A    between atoms: _578  and  _579
REMARK  229  A    between atoms: _578  and  _581
REMARK  230  A    between atoms: _581  and  _582
REMARK  231  A    between atoms: _588  and  _590
REMARK  232  A    between atoms: _590  and  _591
REMARK  233  A    between atoms: _593  and  _595
REMARK  234  A    between atoms: _595  and  _596
REMARK  235  A    between atoms: _595  and  _598
REMARK  236  A    between atoms: _598  and  _599
REMARK  237  A    between atoms: _599  and  _600
REMARK  238  A    between atoms: _600  and  _601
REMARK                            x       y       z     vdW  Elec       q    Type
REMARK                         _______ _______ _______ _____ _____    ______ ____
ROOT
ATOM      1  O   HOH     1      24.651  41.387  -8.036  0.00  0.00    +0.000 OA
ENDROOT
TORSDOF 0
REMARK  Name = ../refined-set-2016/3hu3/3hu3_pocket.pdb
REMARK  238 active torsions:
REMARK  status: ('A' for Active; 'I' for Inactive)
REMARK    1  A    between atoms: _1  and  _3
REMARK    2  A    between atoms: _3  and  _4
REMARK    3  A    between atoms: _3  and  _6
REMARK    4  A    between atoms: _9  and  _11
REMARK    5  A    between atoms: _11  and  _12
REMARK    6  A    between atoms: _11  and  _14
REMARK    7  A    between atoms: _14  and  _15
REMARK    8  A    between atoms: _20  and  _21
REMARK    9  A    between atoms: _23  and  _25
REMARK   10  A    between atoms: _25  and  _26
REMARK   11  A    between atoms: _25  and  _28
REMARK   12  A    between atoms: _28  and  _29
REMARK   13  A    between atoms: _32  and  _34
REMARK   14  A    between atoms: _34  and  _35
REMARK   15  A    between atoms: _34  and  _37
REMARK   16  A    between atoms: _37  and  _38
REMARK   17  A    between atoms: _41  and  _43
REMARK   18  A    between atoms: _43  and  _44
REMARK   19  A    between atoms: _43  and  _46
REMARK   20  A    between atoms: _46  and  _47
REMARK   21  A    between atoms: _50  and  _52
REMARK   22  A    between atoms: _52  and  _53
REMARK   23  A    between atoms: _55  and  _57
REMARK   24  A    between atoms: _57  and  _58
REMARK   25  A    between atoms: _60  and  _62
REMARK   26  A    between atoms: _62  and  _63
REMARK   27  A    between atoms: _62  and  _65
REMARK   28  A    between atoms: _67  and  _69
REMARK   29  A    between atoms: _69  and  _70
REMARK   30  A    between atoms: _69  and  _72
REMARK   31  A    between atoms: _72  and  _73
REMARK   32  A    between atoms: _73  and  _74
REMARK   33  A    between atoms: _74  and  _75
REMARK   34  A    between atoms: _84  and  _86
REMARK   35  A    between atoms: _86  and  _87
REMARK   36  A    between atoms: _86  and  _89
REMARK   37  A    between atoms: _89  and  _90
REMARK   38  A    between atoms: _90  and  _91
REMARK   39  A    between atoms: _96  and  _98
REMARK   40  A    between atoms: _98  and  _99
REMARK   41  A    between atoms: _98  and  _101
REMARK   42  A    between atoms: _101  and  _102
REMARK   43  A    between atoms: _105  and  _107
REMARK   44  A    between atoms: _107  and  _108
REMARK   45  A    between atoms: _107  and  _110
REMARK   46  A    between atoms: _110  and  _111
REMARK   47  A    between atoms: _114  and  _116
REMARK   48  A    between atoms: _116  and  _117
REMARK   49  A    between atoms: _116  and  _119
REMARK   50  A    between atoms: _119  and  _120
REMARK   51  A    between atoms: _125  and  _126
REMARK   52  A    between atoms: _128  and  _130
REMARK   53  A    between atoms: _130  and  _131
REMARK   54  A    between atoms: _134  and  _135
REMARK   55  A    between atoms: _141  and  _142
REMARK   56  A    between atoms: _147  and  _149
REMARK   57  A    between atoms: _149  and  _150
REMARK   58  A    between atoms: _152  and  _154
REMARK   59  A    between atoms: _154  and  _155
REMARK   60  A    between atoms: _154  and  _157
REMARK   61  A    between atoms: _157  and  _158
REMARK   62  A    between atoms: _161  and  _163
REMARK   63  A    between atoms: _163  and  _164
REMARK   64  A    between atoms: _166  and  _168
REMARK   65  A    between atoms: _168  and  _169
REMARK   66  A    between atoms: _168  and  _171
REMARK   67  A    between atoms: _171  and  _172
REMARK   68  A    between atoms: _172  and  _173
REMARK   69  A    between atoms: _173  and  _174
REMARK   70  A    between atoms: _174  and  _175
REMARK   71  A    between atoms: _179  and  _181
REMARK   72  A    between atoms: _181  and  _182
REMARK   73  A    between atoms: _181  and  _184
REMARK   74  A    between atoms: _184  and  _185
REMARK   75  A    between atoms: _188  and  _190
REMARK   76  A    between atoms: _190  and  _191
REMARK   77  A    between atoms: _190  and  _193
REMARK   78  A    between atoms: _193  and  _194
REMARK   79  A    between atoms: _197  and  _199
REMARK   80  A    between atoms: _199  and  _200
REMARK   81  A    between atoms: _199  and  _202
REMARK   82  A    between atoms: _202  and  _203
REMARK   83  A    between atoms: _206  and  _208
REMARK   84  A    between atoms: _208  and  _209
REMARK   85  A    between atoms: _212  and  _214
REMARK   86  A    between atoms: _214  and  _215
REMARK   87  A    between atoms: _214  and  _217
REMARK   88  A    between atoms: _217  and  _218
REMARK   89  A    between atoms: _218  and  _219
REMARK   90  A    between atoms: _219  and  _220
REMARK   91  A    between atoms: _229  and  _231
REMARK   92  A    between atoms: _231  and  _232
REMARK   93  A    between atoms: _235  and  _237
REMARK   94  A    between atoms: _237  and  _238
REMARK   95  A    between atoms: _237  and  _240
REMARK   96  A    between atoms: _240  and  _241
REMARK   97  A    between atoms: _247  and  _249
REMARK   98  A    between atoms: _249  and  _250
REMARK   99  A    between atoms: _249  and  _252
REMARK  100  A    between atoms: _252  and  _253
REMARK  101  A    between atoms: _256  and  _258
REMARK  102  A    between atoms: _258  and  _259
REMARK  103  A    between atoms: _258  and  _261
REMARK  104  A    between atoms: _261  and  _262
REMARK  105  A    between atoms: _262  and  _263
REMARK  106  A    between atoms: _266  and  _268
REMARK  107  A    between atoms: _268  and  _269
REMARK  108  A    between atoms: _268  and  _271
REMARK  109  A    between atoms: _271  and  _272
REMARK  110  A    between atoms: _275  and  _277
REMARK  111  A    between atoms: _277  and  _278
REMARK  112  A    between atoms: _281  and  _283
REMARK  113  A    between atoms: _283  and  _284
REMARK  114  A    between atoms: _283  and  _286
REMARK  115  A    between atoms: _286  and  _287
REMARK  116  A    between atoms: _290  and  _292
REMARK  117  A    between atoms: _292  and  _293
REMARK  118  A    between atoms: _292  and  _295
REMARK  119  A    between atoms: _295  and  _296
REMARK  120  A    between atoms: _301  and  _303
REMARK  121  A    between atoms: _303  and  _304
REMARK  122  A    between atoms: _303  and  _306
REMARK  123  A    between atoms: _306  and  _307
REMARK  124  A    between atoms: _307  and  _308
REMARK  125  A    between atoms: _308  and  _309
REMARK  126  A    between atoms: _318  and  _320
REMARK  127  A    between atoms: _320  and  _321
REMARK  128  A    between atoms: _320  and  _323
REMARK  129  A    between atoms: _323  and  _324
REMARK  130  A    between atoms: _327  and  _329
REMARK  131  A    between atoms: _329  and  _330
REMARK  132  A    between atoms: _333  and  _334
REMARK  133  A    between atoms: _339  and  _341
REMARK  134  A    between atoms: _341  and  _342
REMARK  135  A    between atoms: _344  and  _346
REMARK  136  A    between atoms: _346  and  _347
REMARK  137  A    between atoms: _346  and  _349
REMARK  138  A    between atoms: _349  and  _350
REMARK  139  A    between atoms: _350  and  _351
REMARK  140  A    between atoms: _351  and  _352
REMARK  141  A    between atoms: _361  and  _363
REMARK  142  A    between atoms: _363  and  _364
REMARK  143  A    between atoms: _363  and  _366
REMARK  144  A    between atoms: _366  and  _367
REMARK  145  A    between atoms: _367  and  _368
REMARK  146  A    between atoms: _371  and  _373
REMARK  147  A    between atoms: _373  and  _374
REMARK  148  A    between atoms: _373  and  _376
REMARK  149  A    between atoms: _376  and  _377
REMARK  150  A    between atoms: _380  and  _382
REMARK  151  A    between atoms: _382  and  _383
REMARK  152  A    between atoms: _382  and  _385
REMARK  153  A    between atoms: _385  and  _386
REMARK  154  A    between atoms: _389  and  _391
REMARK  155  A    between atoms: _391  and  _392
REMARK  156  A    between atoms: _391  and  _394
REMARK  157  A    between atoms: _394  and  _395
REMARK  158  A    between atoms: _395  and  _396
REMARK  159  A    between atoms: _401  and  _403
REMARK  160  A    between atoms: _403  and  _404
REMARK  161  A    between atoms: _403  and  _406
REMARK  162  A    between atoms: _406  and  _407
REMARK  163  A    between atoms: _410  and  _412
REMARK  164  A    between atoms: _412  and  _413
REMARK  165  A    between atoms: _412  and  _415
REMARK  166  A    between atoms: _415  and  _416
REMARK  167  A    between atoms: _421  and  _423
REMARK  168  A    between atoms: _423  and  _424
REMARK  169  A    between atoms: _423  and  _426
REMARK  170  A    between atoms: _429  and  _431
REMARK  171  A    between atoms: _431  and  _432
REMARK  172  A    between atoms: _434  and  _436
REMARK  173  A    between atoms: _436  and  _437
REMARK  174  A    between atoms: _440  and  _442
REMARK  175  A    between atoms: _442  and  _443
REMARK  176  A    between atoms: _442  and  _445
REMARK  177  A    between atoms: _445  and  _446
REMARK  178  A    between atoms: _449  and  _451
REMARK  179  A    between atoms: _451  and  _452
REMARK  180  A    between atoms: _451  and  _454
REMARK  181  A    between atoms: _454  and  _455
REMARK  182  A    between atoms: _458  and  _460
REMARK  183  A    between atoms: _460  and  _461
REMARK  184  A    between atoms: _464  and  _466
REMARK  185  A    between atoms: _466  and  _467
REMARK  186  A    between atoms: _470  and  _472
REMARK  187  A    between atoms: _472  and  _473
REMARK  188  A    between atoms: _472  and  _475
REMARK  189  A    between atoms: _475  and  _476
REMARK  190  A    between atoms: _478  and  _480
REMARK  191  A    between atoms: _480  and  _481
REMARK  192  A    between atoms: _480  and  _483
REMARK  193  A    between atoms: _483  and  _484
REMARK  194  A    between atoms: _484  and  _485
REMARK  195  A    between atoms: _485  and  _486
REMARK  196  A    between atoms: _486  and  _487
REMARK  197  A    between atoms: _491  and  _493
REMARK  198  A    between atoms: _493  and  _494
REMARK  199  A    between atoms: _493  and  _496
REMARK  200  A    between atoms: _496  and  _497
REMARK  201  A    between atoms: _497  and  _498
REMARK  202  A    between atoms: _498  and  _499
REMARK  203  A    between atoms: _508  and  _510
REMARK  204  A    between atoms: _510  and  _511
REMARK  205  A    between atoms: _510  and  _513
REMARK  206  A    between atoms: _513  and  _514
REMARK  207  A    between atoms: _517  and  _519
REMARK  208  A    between atoms: _519  and  _520
REMARK  209  A    between atoms: _519  and  _522
REMARK  210  A    between atoms: _522  and  _523
REMARK  211  A    between atoms: _523  and  _524
REMARK  212  A    between atoms: _530  and  _531
REMARK  213  A    between atoms: _536  and  _538
REMARK  214  A    between atoms: _538  and  _539
REMARK  215  A    between atoms: _542  and  _544
REMARK  216  A    between atoms: _544  and  _545
REMARK  217  A    between atoms: _544  and  _547
REMARK  218  A    between atoms: _547  and  _548
REMARK  219  A    between atoms: _548  and  _549
REMARK  220  A    between atoms: _549  and  _550
REMARK  221  A    between atoms: _559  and  _561
REMARK  222  A    between atoms: _561  and  _562
REMARK  223  A    between atoms: _561  and  _564
REMARK  224  A    between atoms: _564  and  _565
REMARK  225  A    between atoms: _565  and  _566
REMARK  226  A    between atoms: _566  and  _567
REMARK  227  A    between atoms: _576  and  _578
REMARK  228  A    between atoms: _578  and  _579
REMARK  229  A    between atoms: _578  and  _581
REMARK  230  A    between atoms: _581  and  _582
REMARK  231  A    between atoms: _588  and  _590
REMARK  232  A    between atoms: _590  and  _591
REMARK  233  A    between atoms: _593  and  _595
REMARK  234  A    between atoms: _595  and  _596
REMARK  235  A    between atoms: _595  and  _598
REMARK  236  A    between atoms: _598  and  _599
REMARK  237  A    between atoms: _599  and  _600
REMARK  238  A    between atoms: _600  and  _601
REMARK                            x       y       z     vdW  Elec       q    Type
REMARK                         _______ _______ _______ _____ _____    ______ ____
ROOT
ATOM      1  O   HOH     1      33.815  42.752 -10.322  0.00  0.00    +0.000 OA
ENDROOT
TORSDOF 0
REMARK  Name = ../refined-set-2016/3hu3/3hu3_pocket.pdb
REMARK  238 active torsions:
REMARK  status: ('A' for Active; 'I' for Inactive)
REMARK    1  A    between atoms: _1  and  _3
REMARK    2  A    between atoms: _3  and  _4
REMARK    3  A    between atoms: _3  and  _6
REMARK    4  A    between atoms: _9  and  _11
REMARK    5  A    between atoms: _11  and  _12
REMARK    6  A    between atoms: _11  and  _14
REMARK    7  A    between atoms: _14  and  _15
REMARK    8  A    between atoms: _20  and  _21
REMARK    9  A    between atoms: _23  and  _25
REMARK   10  A    between atoms: _25  and  _26
REMARK   11  A    between atoms: _25  and  _28
REMARK   12  A    between atoms: _28  and  _29
REMARK   13  A    between atoms: _32  and  _34
REMARK   14  A    between atoms: _34  and  _35
REMARK   15  A    between atoms: _34  and  _37
REMARK   16  A    between atoms: _37  and  _38
REMARK   17  A    between atoms: _41  and  _43
REMARK   18  A    between atoms: _43  and  _44
REMARK   19  A    between atoms: _43  and  _46
REMARK   20  A    between atoms: _46  and  _47
REMARK   21  A    between atoms: _50  and  _52
REMARK   22  A    between atoms: _52  and  _53
REMARK   23  A    between atoms: _55  and  _57
REMARK   24  A    between atoms: _57  and  _58
REMARK   25  A    between atoms: _60  and  _62
REMARK   26  A    between atoms: _62  and  _63
REMARK   27  A    between atoms: _62  and  _65
REMARK   28  A    between atoms: _67  and  _69
REMARK   29  A    between atoms: _69  and  _70
REMARK   30  A    between atoms: _69  and  _72
REMARK   31  A    between atoms: _72  and  _73
REMARK   32  A    between atoms: _73  and  _74
REMARK   33  A    between atoms: _74  and  _75
REMARK   34  A    between atoms: _84  and  _86
REMARK   35  A    between atoms: _86  and  _87
REMARK   36  A    between atoms: _86  and  _89
REMARK   37  A    between atoms: _89  and  _90
REMARK   38  A    between atoms: _90  and  _91
REMARK   39  A    between atoms: _96  and  _98
REMARK   40  A    between atoms: _98  and  _99
REMARK   41  A    between atoms: _98  and  _101
REMARK   42  A    between atoms: _101  and  _102
REMARK   43  A    between atoms: _105  and  _107
REMARK   44  A    between atoms: _107  and  _108
REMARK   45  A    between atoms: _107  and  _110
REMARK   46  A    between atoms: _110  and  _111
REMARK   47  A    between atoms: _114  and  _116
REMARK   48  A    between atoms: _116  and  _117
REMARK   49  A    between atoms: _116  and  _119
REMARK   50  A    between atoms: _119  and  _120
REMARK   51  A    between atoms: _125  and  _126
REMARK   52  A    between atoms: _128  and  _130
REMARK   53  A    between atoms: _130  and  _131
REMARK   54  A    between atoms: _134  and  _135
REMARK   55  A    between atoms: _141  and  _142
REMARK   56  A    between atoms: _147  and  _149
REMARK   57  A    between atoms: _149  and  _150
REMARK   58  A    between atoms: _152  and  _154
REMARK   59  A    between atoms: _154  and  _155
REMARK   60  A    between atoms: _154  and  _157
REMARK   61  A    between atoms: _157  and  _158
REMARK   62  A    between atoms: _161  and  _163
REMARK   63  A    between atoms: _163  and  _164
REMARK   64  A    between atoms: _166  and  _168
REMARK   65  A    between atoms: _168  and  _169
REMARK   66  A    between atoms: _168  and  _171
REMARK   67  A    between atoms: _171  and  _172
REMARK   68  A    between atoms: _172  and  _173
REMARK   69  A    between atoms: _173  and  _174
REMARK   70  A    between atoms: _174  and  _175
REMARK   71  A    between atoms: _179  and  _181
REMARK   72  A    between atoms: _181  and  _182
REMARK   73  A    between atoms: _181  and  _184
REMARK   74  A    between atoms: _184  and  _185
REMARK   75  A    between atoms: _188  and  _190
REMARK   76  A    between atoms: _190  and  _191
REMARK   77  A    between atoms: _190  and  _193
REMARK   78  A    between atoms: _193  and  _194
REMARK   79  A    between atoms: _197  and  _199
REMARK   80  A    between atoms: _199  and  _200
REMARK   81  A    between atoms: _199  and  _202
REMARK   82  A    between atoms: _202  and  _203
REMARK   83  A    between atoms: _206  and  _208
REMARK   84  A    between atoms: _208  and  _209
REMARK   85  A    between atoms: _212  and  _214
REMARK   86  A    between atoms: _214  and  _215
REMARK   87  A    between atoms: _214  and  _217
REMARK   88  A    between atoms: _217  and  _218
REMARK   89  A    between atoms: _218  and  _219
REMARK   90  A    between atoms: _219  and  _220
REMARK   91  A    between atoms: _229  and  _231
REMARK   92  A    between atoms: _231  and  _232
REMARK   93  A    between atoms: _235  and  _237
REMARK   94  A    between atoms: _237  and  _238
REMARK   95  A    between atoms: _237  and  _240
REMARK   96  A    between atoms: _240  and  _241
REMARK   97  A    between atoms: _247  and  _249
REMARK   98  A    between atoms: _249  and  _250
REMARK   99  A    between atoms: _249  and  _252
REMARK  100  A    between atoms: _252  and  _253
REMARK  101  A    between atoms: _256  and  _258
REMARK  102  A    between atoms: _258  and  _259
REMARK  103  A    between atoms: _258  and  _261
REMARK  104  A    between atoms: _261  and  _262
REMARK  105  A    between atoms: _262  and  _263
REMARK  106  A    between atoms: _266  and  _268
REMARK  107  A    between atoms: _268  and  _269
REMARK  108  A    between atoms: _268  and  _271
REMARK  109  A    between atoms: _271  and  _272
REMARK  110  A    between atoms: _275  and  _277
REMARK  111  A    between atoms: _277  and  _278
REMARK  112  A    between atoms: _281  and  _283
REMARK  113  A    between atoms: _283  and  _284
REMARK  114  A    between atoms: _283  and  _286
REMARK  115  A    between atoms: _286  and  _287
REMARK  116  A    between atoms: _290  and  _292
REMARK  117  A    between atoms: _292  and  _293
REMARK  118  A    between atoms: _292  and  _295
REMARK  119  A    between atoms: _295  and  _296
REMARK  120  A    between atoms: _301  and  _303
REMARK  121  A    between atoms: _303  and  _304
REMARK  122  A    between atoms: _303  and  _306
REMARK  123  A    between atoms: _306  and  _307
REMARK  124  A    between atoms: _307  and  _308
REMARK  125  A    between atoms: _308  and  _309
REMARK  126  A    between atoms: _318  and  _320
REMARK  127  A    between atoms: _320  and  _321
REMARK  128  A    between atoms: _320  and  _323
REMARK  129  A    between atoms: _323  and  _324
REMARK  130  A    between atoms: _327  and  _329
REMARK  131  A    between atoms: _329  and  _330
REMARK  132  A    between atoms: _333  and  _334
REMARK  133  A    between atoms: _339  and  _341
REMARK  134  A    between atoms: _341  and  _342
REMARK  135  A    between atoms: _344  and  _346
REMARK  136  A    between atoms: _346  and  _347
REMARK  137  A    between atoms: _346  and  _349
REMARK  138  A    between atoms: _349  and  _350
REMARK  139  A    between atoms: _350  and  _351
REMARK  140  A    between atoms: _351  and  _352
REMARK  141  A    between atoms: _361  and  _363
REMARK  142  A    between atoms: _363  and  _364
REMARK  143  A    between atoms: _363  and  _366
REMARK  144  A    between atoms: _366  and  _367
REMARK  145  A    between atoms: _367  and  _368
REMARK  146  A    between atoms: _371  and  _373
REMARK  147  A    between atoms: _373  and  _374
REMARK  148  A    between atoms: _373  and  _376
REMARK  149  A    between atoms: _376  and  _377
REMARK  150  A    between atoms: _380  and  _382
REMARK  151  A    between atoms: _382  and  _383
REMARK  152  A    between atoms: _382  and  _385
REMARK  153  A    between atoms: _385  and  _386
REMARK  154  A    between atoms: _389  and  _391
REMARK  155  A    between atoms: _391  and  _392
REMARK  156  A    between atoms: _391  and  _394
REMARK  157  A    between atoms: _394  and  _395
REMARK  158  A    between atoms: _395  and  _396
REMARK  159  A    between atoms: _401  and  _403
REMARK  160  A    between atoms: _403  and  _404
REMARK  161  A    between atoms: _403  and  _406
REMARK  162  A    between atoms: _406  and  _407
REMARK  163  A    between atoms: _410  and  _412
REMARK  164  A    between atoms: _412  and  _413
REMARK  165  A    between atoms: _412  and  _415
REMARK  166  A    between atoms: _415  and  _416
REMARK  167  A    between atoms: _421  and  _423
REMARK  168  A    between atoms: _423  and  _424
REMARK  169  A    between atoms: _423  and  _426
REMARK  170  A    between atoms: _429  and  _431
REMARK  171  A    between atoms: _431  and  _432
REMARK  172  A    between atoms: _434  and  _436
REMARK  173  A    between atoms: _436  and  _437
REMARK  174  A    between atoms: _440  and  _442
REMARK  175  A    between atoms: _442  and  _443
REMARK  176  A    between atoms: _442  and  _445
REMARK  177  A    between atoms: _445  and  _446
REMARK  178  A    between atoms: _449  and  _451
REMARK  179  A    between atoms: _451  and  _452
REMARK  180  A    between atoms: _451  and  _454
REMARK  181  A    between atoms: _454  and  _455
REMARK  182  A    between atoms: _458  and  _460
REMARK  183  A    between atoms: _460  and  _461
REMARK  184  A    between atoms: _464  and  _466
REMARK  185  A    between atoms: _466  and  _467
REMARK  186  A    between atoms: _470  and  _472
REMARK  187  A    between atoms: _472  and  _473
REMARK  188  A    between atoms: _472  and  _475
REMARK  189  A    between atoms: _475  and  _476
REMARK  190  A    between atoms: _478  and  _480
REMARK  191  A    between atoms: _480  and  _481
REMARK  192  A    between atoms: _480  and  _483
REMARK  193  A    between atoms: _483  and  _484
REMARK  194  A    between atoms: _484  and  _485
REMARK  195  A    between atoms: _485  and  _486
REMARK  196  A    between atoms: _486  and  _487
REMARK  197  A    between atoms: _491  and  _493
REMARK  198  A    between atoms: _493  and  _494
REMARK  199  A    between atoms: _493  and  _496
REMARK  200  A    between atoms: _496  and  _497
REMARK  201  A    between atoms: _497  and  _498
REMARK  202  A    between atoms: _498  and  _499
REMARK  203  A    between atoms: _508  and  _510
REMARK  204  A    between atoms: _510  and  _511
REMARK  205  A    between atoms: _510  and  _513
REMARK  206  A    between atoms: _513  and  _514
REMARK  207  A    between atoms: _517  and  _519
REMARK  208  A    between atoms: _519  and  _520
REMARK  209  A    between atoms: _519  and  _522
REMARK  210  A    between atoms: _522  and  _523
REMARK  211  A    between atoms: _523  and  _524
REMARK  212  A    between atoms: _530  and  _531
REMARK  213  A    between atoms: _536  and  _538
REMARK  214  A    between atoms: _538  and  _539
REMARK  215  A    between atoms: _542  and  _544
REMARK  216  A    between atoms: _544  and  _545
REMARK  217  A    between atoms: _544  and  _547
REMARK  218  A    between atoms: _547  and  _548
REMARK  219  A    between atoms: _548  and  _549
REMARK  220  A    between atoms: _549  and  _550
REMARK  221  A    between atoms: _559  and  _561
REMARK  222  A    between atoms: _561  and  _562
REMARK  223  A    between atoms: _561  and  _564
REMARK  224  A    between atoms: _564  and  _565
REMARK  225  A    between atoms: _565  and  _566
REMARK  226  A    between atoms: _566  and  _567
REMARK  227  A    between atoms: _576  and  _578
REMARK  228  A    between atoms: _578  and  _579
REMARK  229  A    between atoms: _578  and  _581
REMARK  230  A    between atoms: _581  and  _582
REMARK  231  A    between atoms: _588  and  _590
REMARK  232  A    between atoms: _590  and  _591
REMARK  233  A    between atoms: _593  and  _595
REMARK  234  A    between atoms: _595  and  _596
REMARK  235  A    between atoms: _595  and  _598
REMARK  236  A    between atoms: _598  and  _599
REMARK  237  A    between atoms: _599  and  _600
REMARK  238  A    between atoms: _600  and  _601
REMARK                            x       y       z     vdW  Elec       q    Type
REMARK                         _______ _______ _______ _____ _____    ______ ____
ROOT
ATOM      1  O   HOH     1      32.656  44.844 -12.760  0.00  0.00    +0.000 OA
ENDROOT
TORSDOF 0
REMARK  Name = ../refined-set-2016/3hu3/3hu3_pocket.pdb
REMARK  238 active torsions:
REMARK  status: ('A' for Active; 'I' for Inactive)
REMARK    1  A    between atoms: _1  and  _3
REMARK    2  A    between atoms: _3  and  _4
REMARK    3  A    between atoms: _3  and  _6
REMARK    4  A    between atoms: _9  and  _11
REMARK    5  A    between atoms: _11  and  _12
REMARK    6  A    between atoms: _11  and  _14
REMARK    7  A    between atoms: _14  and  _15
REMARK    8  A    between atoms: _20  and  _21
REMARK    9  A    between atoms: _23  and  _25
REMARK   10  A    between atoms: _25  and  _26
REMARK   11  A    between atoms: _25  and  _28
REMARK   12  A    between atoms: _28  and  _29
REMARK   13  A    between atoms: _32  and  _34
REMARK   14  A    between atoms: _34  and  _35
REMARK   15  A    between atoms: _34  and  _37
REMARK   16  A    between atoms: _37  and  _38
REMARK   17  A    between atoms: _41  and  _43
REMARK   18  A    between atoms: _43  and  _44
REMARK   19  A    between atoms: _43  and  _46
REMARK   20  A    between atoms: _46  and  _47
REMARK   21  A    between atoms: _50  and  _52
REMARK   22  A    between atoms: _52  and  _53
REMARK   23  A    between atoms: _55  and  _57
REMARK   24  A    between atoms: _57  and  _58
REMARK   25  A    between atoms: _60  and  _62
REMARK   26  A    between atoms: _62  and  _63
REMARK   27  A    between atoms: _62  and  _65
REMARK   28  A    between atoms: _67  and  _69
REMARK   29  A    between atoms: _69  and  _70
REMARK   30  A    between atoms: _69  and  _72
REMARK   31  A    between atoms: _72  and  _73
REMARK   32  A    between atoms: _73  and  _74
REMARK   33  A    between atoms: _74  and  _75
REMARK   34  A    between atoms: _84  and  _86
REMARK   35  A    between atoms: _86  and  _87
REMARK   36  A    between atoms: _86  and  _89
REMARK   37  A    between atoms: _89  and  _90
REMARK   38  A    between atoms: _90  and  _91
REMARK   39  A    between atoms: _96  and  _98
REMARK   40  A    between atoms: _98  and  _99
REMARK   41  A    between atoms: _98  and  _101
REMARK   42  A    between atoms: _101  and  _102
REMARK   43  A    between atoms: _105  and  _107
REMARK   44  A    between atoms: _107  and  _108
REMARK   45  A    between atoms: _107  and  _110
REMARK   46  A    between atoms: _110  and  _111
REMARK   47  A    between atoms: _114  and  _116
REMARK   48  A    between atoms: _116  and  _117
REMARK   49  A    between atoms: _116  and  _119
REMARK   50  A    between atoms: _119  and  _120
REMARK   51  A    between atoms: _125  and  _126
REMARK   52  A    between atoms: _128  and  _130
REMARK   53  A    between atoms: _130  and  _131
REMARK   54  A    between atoms: _134  and  _135
REMARK   55  A    between atoms: _141  and  _142
REMARK   56  A    between atoms: _147  and  _149
REMARK   57  A    between atoms: _149  and  _150
REMARK   58  A    between atoms: _152  and  _154
REMARK   59  A    between atoms: _154  and  _155
REMARK   60  A    between atoms: _154  and  _157
REMARK   61  A    between atoms: _157  and  _158
REMARK   62  A    between atoms: _161  and  _163
REMARK   63  A    between atoms: _163  and  _164
REMARK   64  A    between atoms: _166  and  _168
REMARK   65  A    between atoms: _168  and  _169
REMARK   66  A    between atoms: _168  and  _171
REMARK   67  A    between atoms: _171  and  _172
REMARK   68  A    between atoms: _172  and  _173
REMARK   69  A    between atoms: _173  and  _174
REMARK   70  A    between atoms: _174  and  _175
REMARK   71  A    between atoms: _179  and  _181
REMARK   72  A    between atoms: _181  and  _182
REMARK   73  A    between atoms: _181  and  _184
REMARK   74  A    between atoms: _184  and  _185
REMARK   75  A    between atoms: _188  and  _190
REMARK   76  A    between atoms: _190  and  _191
REMARK   77  A    between atoms: _190  and  _193
REMARK   78  A    between atoms: _193  and  _194
REMARK   79  A    between atoms: _197  and  _199
REMARK   80  A    between atoms: _199  and  _200
REMARK   81  A    between atoms: _199  and  _202
REMARK   82  A    between atoms: _202  and  _203
REMARK   83  A    between atoms: _206  and  _208
REMARK   84  A    between atoms: _208  and  _209
REMARK   85  A    between atoms: _212  and  _214
REMARK   86  A    between atoms: _214  and  _215
REMARK   87  A    between atoms: _214  and  _217
REMARK   88  A    between atoms: _217  and  _218
REMARK   89  A    between atoms: _218  and  _219
REMARK   90  A    between atoms: _219  and  _220
REMARK   91  A    between atoms: _229  and  _231
REMARK   92  A    between atoms: _231  and  _232
REMARK   93  A    between atoms: _235  and  _237
REMARK   94  A    between atoms: _237  and  _238
REMARK   95  A    between atoms: _237  and  _240
REMARK   96  A    between atoms: _240  and  _241
REMARK   97  A    between atoms: _247  and  _249
REMARK   98  A    between atoms: _249  and  _250
REMARK   99  A    between atoms: _249  and  _252
REMARK  100  A    between atoms: _252  and  _253
REMARK  101  A    between atoms: _256  and  _258
REMARK  102  A    between atoms: _258  and  _259
REMARK  103  A    between atoms: _258  and  _261
REMARK  104  A    between atoms: _261  and  _262
REMARK  105  A    between atoms: _262  and  _263
REMARK  106  A    between atoms: _266  and  _268
REMARK  107  A    between atoms: _268  and  _269
REMARK  108  A    between atoms: _268  and  _271
REMARK  109  A    between atoms: _271  and  _272
REMARK  110  A    between atoms: _275  and  _277
REMARK  111  A    between atoms: _277  and  _278
REMARK  112  A    between atoms: _281  and  _283
REMARK  113  A    between atoms: _283  and  _284
REMARK  114  A    between atoms: _283  and  _286
REMARK  115  A    between atoms: _286  and  _287
REMARK  116  A    between atoms: _290  and  _292
REMARK  117  A    between atoms: _292  and  _293
REMARK  118  A    between atoms: _292  and  _295
REMARK  119  A    between atoms: _295  and  _296
REMARK  120  A    between atoms: _301  and  _303
REMARK  121  A    between atoms: _303  and  _304
REMARK  122  A    between atoms: _303  and  _306
REMARK  123  A    between atoms: _306  and  _307
REMARK  124  A    between atoms: _307  and  _308
REMARK  125  A    between atoms: _308  and  _309
REMARK  126  A    between atoms: _318  and  _320
REMARK  127  A    between atoms: _320  and  _321
REMARK  128  A    between atoms: _320  and  _323
REMARK  129  A    between atoms: _323  and  _324
REMARK  130  A    between atoms: _327  and  _329
REMARK  131  A    between atoms: _329  and  _330
REMARK  132  A    between atoms: _333  and  _334
REMARK  133  A    between atoms: _339  and  _341
REMARK  134  A    between atoms: _341  and  _342
REMARK  135  A    between atoms: _344  and  _346
REMARK  136  A    between atoms: _346  and  _347
REMARK  137  A    between atoms: _346  and  _349
REMARK  138  A    between atoms: _349  and  _350
REMARK  139  A    between atoms: _350  and  _351
REMARK  140  A    between atoms: _351  and  _352
REMARK  141  A    between atoms: _361  and  _363
REMARK  142  A    between atoms: _363  and  _364
REMARK  143  A    between atoms: _363  and  _366
REMARK  144  A    between atoms: _366  and  _367
REMARK  145  A    between atoms: _367  and  _368
REMARK  146  A    between atoms: _371  and  _373
REMARK  147  A    between atoms: _373  and  _374
REMARK  148  A    between atoms: _373  and  _376
REMARK  149  A    between atoms: _376  and  _377
REMARK  150  A    between atoms: _380  and  _382
REMARK  151  A    between atoms: _382  and  _383
REMARK  152  A    between atoms: _382  and  _385
REMARK  153  A    between atoms: _385  and  _386
REMARK  154  A    between atoms: _389  and  _391
REMARK  155  A    between atoms: _391  and  _392
REMARK  156  A    between atoms: _391  and  _394
REMARK  157  A    between atoms: _394  and  _395
REMARK  158  A    between atoms: _395  and  _396
REMARK  159  A    between atoms: _401  and  _403
REMARK  160  A    between atoms: _403  and  _404
REMARK  161  A    between atoms: _403  and  _406
REMARK  162  A    between atoms: _406  and  _407
REMARK  163  A    between atoms: _410  and  _412
REMARK  164  A    between atoms: _412  and  _413
REMARK  165  A    between atoms: _412  and  _415
REMARK  166  A    between atoms: _415  and  _416
REMARK  167  A    between atoms: _421  and  _423
REMARK  168  A    between atoms: _423  and  _424
REMARK  169  A    between atoms: _423  and  _426
REMARK  170  A    between atoms: _429  and  _431
REMARK  171  A    between atoms: _431  and  _432
REMARK  172  A    between atoms: _434  and  _436
REMARK  173  A    between atoms: _436  and  _437
REMARK  174  A    between atoms: _440  and  _442
REMARK  175  A    between atoms: _442  and  _443
REMARK  176  A    between atoms: _442  and  _445
REMARK  177  A    between atoms: _445  and  _446
REMARK  178  A    between atoms: _449  and  _451
REMARK  179  A    between atoms: _451  and  _452
REMARK  180  A    between atoms: _451  and  _454
REMARK  181  A    between atoms: _454  and  _455
REMARK  182  A    between atoms: _458  and  _460
REMARK  183  A    between atoms: _460  and  _461
REMARK  184  A    between atoms: _464  and  _466
REMARK  185  A    between atoms: _466  and  _467
REMARK  186  A    between atoms: _470  and  _472
REMARK  187  A    between atoms: _472  and  _473
REMARK  188  A    between atoms: _472  and  _475
REMARK  189  A    between atoms: _475  and  _476
REMARK  190  A    between atoms: _478  and  _480
REMARK  191  A    between atoms: _480  and  _481
REMARK  192  A    between atoms: _480  and  _483
REMARK  193  A    between atoms: _483  and  _484
REMARK  194  A    between atoms: _484  and  _485
REMARK  195  A    between atoms: _485  and  _486
REMARK  196  A    between atoms: _486  and  _487
REMARK  197  A    between atoms: _491  and  _493
REMARK  198  A    between atoms: _493  and  _494
REMARK  199  A    between atoms: _493  and  _496
REMARK  200  A    between atoms: _496  and  _497
REMARK  201  A    between atoms: _497  and  _498
REMARK  202  A    between atoms: _498  and  _499
REMARK  203  A    between atoms: _508  and  _510
REMARK  204  A    between atoms: _510  and  _511
REMARK  205  A    between atoms: _510  and  _513
REMARK  206  A    between atoms: _513  and  _514
REMARK  207  A    between atoms: _517  and  _519
REMARK  208  A    between atoms: _519  and  _520
REMARK  209  A    between atoms: _519  and  _522
REMARK  210  A    between atoms: _522  and  _523
REMARK  211  A    between atoms: _523  and  _524
REMARK  212  A    between atoms: _530  and  _531
REMARK  213  A    between atoms: _536  and  _538
REMARK  214  A    between atoms: _538  and  _539
REMARK  215  A    between atoms: _542  and  _544
REMARK  216  A    between atoms: _544  and  _545
REMARK  217  A    between atoms: _544  and  _547
REMARK  218  A    between atoms: _547  and  _548
REMARK  219  A    between atoms: _548  and  _549
REMARK  220  A    between atoms: _549  and  _550
REMARK  221  A    between atoms: _559  and  _561
REMARK  222  A    between atoms: _561  and  _562
REMARK  223  A    between atoms: _561  and  _564
REMARK  224  A    between atoms: _564  and  _565
REMARK  225  A    between atoms: _565  and  _566
REMARK  226  A    between atoms: _566  and  _567
REMARK  227  A    between atoms: _576  and  _578
REMARK  228  A    between atoms: _578  and  _579
REMARK  229  A    between atoms: _578  and  _581
REMARK  230  A    between atoms: _581  and  _582
REMARK  231  A    between atoms: _588  and  _590
REMARK  232  A    between atoms: _590  and  _591
REMARK  233  A    between atoms: _593  and  _595
REMARK  234  A    between atoms: _595  and  _596
REMARK  235  A    between atoms: _595  and  _598
REMARK  236  A    between atoms: _598  and  _599
REMARK  237  A    between atoms: _599  and  _600
REMARK  238  A    between atoms: _600  and  _601
REMARK                            x       y       z     vdW  Elec       q    Type
REMARK                         _______ _______ _______ _____ _____    ______ ____
ROOT
ATOM      1  O   HOH     1      27.727  46.033 -16.756  0.00  0.00    +0.000 OA
ENDROOT
TORSDOF 0
REMARK  Name = ../refined-set-2016/3hu3/3hu3_pocket.pdb
REMARK  238 active torsions:
REMARK  status: ('A' for Active; 'I' for Inactive)
REMARK    1  A    between atoms: _1  and  _3
REMARK    2  A    between atoms: _3  and  _4
REMARK    3  A    between atoms: _3  and  _6
REMARK    4  A    between atoms: _9  and  _11
REMARK    5  A    between atoms: _11  and  _12
REMARK    6  A    between atoms: _11  and  _14
REMARK    7  A    between atoms: _14  and  _15
REMARK    8  A    between atoms: _20  and  _21
REMARK    9  A    between atoms: _23  and  _25
REMARK   10  A    between atoms: _25  and  _26
REMARK   11  A    between atoms: _25  and  _28
REMARK   12  A    between atoms: _28  and  _29
REMARK   13  A    between atoms: _32  and  _34
REMARK   14  A    between atoms: _34  and  _35
REMARK   15  A    between atoms: _34  and  _37
REMARK   16  A    between atoms: _37  and  _38
REMARK   17  A    between atoms: _41  and  _43
REMARK   18  A    between atoms: _43  and  _44
REMARK   19  A    between atoms: _43  and  _46
REMARK   20  A    between atoms: _46  and  _47
REMARK   21  A    between atoms: _50  and  _52
REMARK   22  A    between atoms: _52  and  _53
REMARK   23  A    between atoms: _55  and  _57
REMARK   24  A    between atoms: _57  and  _58
REMARK   25  A    between atoms: _60  and  _62
REMARK   26  A    between atoms: _62  and  _63
REMARK   27  A    between atoms: _62  and  _65
REMARK   28  A    between atoms: _67  and  _69
REMARK   29  A    between atoms: _69  and  _70
REMARK   30  A    between atoms: _69  and  _72
REMARK   31  A    between atoms: _72  and  _73
REMARK   32  A    between atoms: _73  and  _74
REMARK   33  A    between atoms: _74  and  _75
REMARK   34  A    between atoms: _84  and  _86
REMARK   35  A    between atoms: _86  and  _87
REMARK   36  A    between atoms: _86  and  _89
REMARK   37  A    between atoms: _89  and  _90
REMARK   38  A    between atoms: _90  and  _91
REMARK   39  A    between atoms: _96  and  _98
REMARK   40  A    between atoms: _98  and  _99
REMARK   41  A    between atoms: _98  and  _101
REMARK   42  A    between atoms: _101  and  _102
REMARK   43  A    between atoms: _105  and  _107
REMARK   44  A    between atoms: _107  and  _108
REMARK   45  A    between atoms: _107  and  _110
REMARK   46  A    between atoms: _110  and  _111
REMARK   47  A    between atoms: _114  and  _116
REMARK   48  A    between atoms: _116  and  _117
REMARK   49  A    between atoms: _116  and  _119
REMARK   50  A    between atoms: _119  and  _120
REMARK   51  A    between atoms: _125  and  _126
REMARK   52  A    between atoms: _128  and  _130
REMARK   53  A    between atoms: _130  and  _131
REMARK   54  A    between atoms: _134  and  _135
REMARK   55  A    between atoms: _141  and  _142
REMARK   56  A    between atoms: _147  and  _149
REMARK   57  A    between atoms: _149  and  _150
REMARK   58  A    between atoms: _152  and  _154
REMARK   59  A    between atoms: _154  and  _155
REMARK   60  A    between atoms: _154  and  _157
REMARK   61  A    between atoms: _157  and  _158
REMARK   62  A    between atoms: _161  and  _163
REMARK   63  A    between atoms: _163  and  _164
REMARK   64  A    between atoms: _166  and  _168
REMARK   65  A    between atoms: _168  and  _169
REMARK   66  A    between atoms: _168  and  _171
REMARK   67  A    between atoms: _171  and  _172
REMARK   68  A    between atoms: _172  and  _173
REMARK   69  A    between atoms: _173  and  _174
REMARK   70  A    between atoms: _174  and  _175
REMARK   71  A    between atoms: _179  and  _181
REMARK   72  A    between atoms: _181  and  _182
REMARK   73  A    between atoms: _181  and  _184
REMARK   74  A    between atoms: _184  and  _185
REMARK   75  A    between atoms: _188  and  _190
REMARK   76  A    between atoms: _190  and  _191
REMARK   77  A    between atoms: _190  and  _193
REMARK   78  A    between atoms: _193  and  _194
REMARK   79  A    between atoms: _197  and  _199
REMARK   80  A    between atoms: _199  and  _200
REMARK   81  A    between atoms: _199  and  _202
REMARK   82  A    between atoms: _202  and  _203
REMARK   83  A    between atoms: _206  and  _208
REMARK   84  A    between atoms: _208  and  _209
REMARK   85  A    between atoms: _212  and  _214
REMARK   86  A    between atoms: _214  and  _215
REMARK   87  A    between atoms: _214  and  _217
REMARK   88  A    between atoms: _217  and  _218
REMARK   89  A    between atoms: _218  and  _219
REMARK   90  A    between atoms: _219  and  _220
REMARK   91  A    between atoms: _229  and  _231
REMARK   92  A    between atoms: _231  and  _232
REMARK   93  A    between atoms: _235  and  _237
REMARK   94  A    between atoms: _237  and  _238
REMARK   95  A    between atoms: _237  and  _240
REMARK   96  A    between atoms: _240  and  _241
REMARK   97  A    between atoms: _247  and  _249
REMARK   98  A    between atoms: _249  and  _250
REMARK   99  A    between atoms: _249  and  _252
REMARK  100  A    between atoms: _252  and  _253
REMARK  101  A    between atoms: _256  and  _258
REMARK  102  A    between atoms: _258  and  _259
REMARK  103  A    between atoms: _258  and  _261
REMARK  104  A    between atoms: _261  and  _262
REMARK  105  A    between atoms: _262  and  _263
REMARK  106  A    between atoms: _266  and  _268
REMARK  107  A    between atoms: _268  and  _269
REMARK  108  A    between atoms: _268  and  _271
REMARK  109  A    between atoms: _271  and  _272
REMARK  110  A    between atoms: _275  and  _277
REMARK  111  A    between atoms: _277  and  _278
REMARK  112  A    between atoms: _281  and  _283
REMARK  113  A    between atoms: _283  and  _284
REMARK  114  A    between atoms: _283  and  _286
REMARK  115  A    between atoms: _286  and  _287
REMARK  116  A    between atoms: _290  and  _292
REMARK  117  A    between atoms: _292  and  _293
REMARK  118  A    between atoms: _292  and  _295
REMARK  119  A    between atoms: _295  and  _296
REMARK  120  A    between atoms: _301  and  _303
REMARK  121  A    between atoms: _303  and  _304
REMARK  122  A    between atoms: _303  and  _306
REMARK  123  A    between atoms: _306  and  _307
REMARK  124  A    between atoms: _307  and  _308
REMARK  125  A    between atoms: _308  and  _309
REMARK  126  A    between atoms: _318  and  _320
REMARK  127  A    between atoms: _320  and  _321
REMARK  128  A    between atoms: _320  and  _323
REMARK  129  A    between atoms: _323  and  _324
REMARK  130  A    between atoms: _327  and  _329
REMARK  131  A    between atoms: _329  and  _330
REMARK  132  A    between atoms: _333  and  _334
REMARK  133  A    between atoms: _339  and  _341
REMARK  134  A    between atoms: _341  and  _342
REMARK  135  A    between atoms: _344  and  _346
REMARK  136  A    between atoms: _346  and  _347
REMARK  137  A    between atoms: _346  and  _349
REMARK  138  A    between atoms: _349  and  _350
REMARK  139  A    between atoms: _350  and  _351
REMARK  140  A    between atoms: _351  and  _352
REMARK  141  A    between atoms: _361  and  _363
REMARK  142  A    between atoms: _363  and  _364
REMARK  143  A    between atoms: _363  and  _366
REMARK  144  A    between atoms: _366  and  _367
REMARK  145  A    between atoms: _367  and  _368
REMARK  146  A    between atoms: _371  and  _373
REMARK  147  A    between atoms: _373  and  _374
REMARK  148  A    between atoms: _373  and  _376
REMARK  149  A    between atoms: _376  and  _377
REMARK  150  A    between atoms: _380  and  _382
REMARK  151  A    between atoms: _382  and  _383
REMARK  152  A    between atoms: _382  and  _385
REMARK  153  A    between atoms: _385  and  _386
REMARK  154  A    between atoms: _389  and  _391
REMARK  155  A    between atoms: _391  and  _392
REMARK  156  A    between atoms: _391  and  _394
REMARK  157  A    between atoms: _394  and  _395
REMARK  158  A    between atoms: _395  and  _396
REMARK  159  A    between atoms: _401  and  _403
REMARK  160  A    between atoms: _403  and  _404
REMARK  161  A    between atoms: _403  and  _406
REMARK  162  A    between atoms: _406  and  _407
REMARK  163  A    between atoms: _410  and  _412
REMARK  164  A    between atoms: _412  and  _413
REMARK  165  A    between atoms: _412  and  _415
REMARK  166  A    between atoms: _415  and  _416
REMARK  167  A    between atoms: _421  and  _423
REMARK  168  A    between atoms: _423  and  _424
REMARK  169  A    between atoms: _423  and  _426
REMARK  170  A    between atoms: _429  and  _431
REMARK  171  A    between atoms: _431  and  _432
REMARK  172  A    between atoms: _434  and  _436
REMARK  173  A    between atoms: _436  and  _437
REMARK  174  A    between atoms: _440  and  _442
REMARK  175  A    between atoms: _442  and  _443
REMARK  176  A    between atoms: _442  and  _445
REMARK  177  A    between atoms: _445  and  _446
REMARK  178  A    between atoms: _449  and  _451
REMARK  179  A    between atoms: _451  and  _452
REMARK  180  A    between atoms: _451  and  _454
REMARK  181  A    between atoms: _454  and  _455
REMARK  182  A    between atoms: _458  and  _460
REMARK  183  A    between atoms: _460  and  _461
REMARK  184  A    between atoms: _464  and  _466
REMARK  185  A    between atoms: _466  and  _467
REMARK  186  A    between atoms: _470  and  _472
REMARK  187  A    between atoms: _472  and  _473
REMARK  188  A    between atoms: _472  and  _475
REMARK  189  A    between atoms: _475  and  _476
REMARK  190  A    between atoms: _478  and  _480
REMARK  191  A    between atoms: _480  and  _481
REMARK  192  A    between atoms: _480  and  _483
REMARK  193  A    between atoms: _483  and  _484
REMARK  194  A    between atoms: _484  and  _485
REMARK  195  A    between atoms: _485  and  _486
REMARK  196  A    between atoms: _486  and  _487
REMARK  197  A    between atoms: _491  and  _493
REMARK  198  A    between atoms: _493  and  _494
REMARK  199  A    between atoms: _493  and  _496
REMARK  200  A    between atoms: _496  and  _497
REMARK  201  A    between atoms: _497  and  _498
REMARK  202  A    between atoms: _498  and  _499
REMARK  203  A    between atoms: _508  and  _510
REMARK  204  A    between atoms: _510  and  _511
REMARK  205  A    between atoms: _510  and  _513
REMARK  206  A    between atoms: _513  and  _514
REMARK  207  A    between atoms: _517  and  _519
REMARK  208  A    between atoms: _519  and  _520
REMARK  209  A    between atoms: _519  and  _522
REMARK  210  A    between atoms: _522  and  _523
REMARK  211  A    between atoms: _523  and  _524
REMARK  212  A    between atoms: _530  and  _531
REMARK  213  A    between atoms: _536  and  _538
REMARK  214  A    between atoms: _538  and  _539
REMARK  215  A    between atoms: _542  and  _544
REMARK  216  A    between atoms: _544  and  _545
REMARK  217  A    between atoms: _544  and  _547
REMARK  218  A    between atoms: _547  and  _548
REMARK  219  A    between atoms: _548  and  _549
REMARK  220  A    between atoms: _549  and  _550
REMARK  221  A    between atoms: _559  and  _561
REMARK  222  A    between atoms: _561  and  _562
REMARK  223  A    between atoms: _561  and  _564
REMARK  224  A    between atoms: _564  and  _565
REMARK  225  A    between atoms: _565  and  _566
REMARK  226  A    between atoms: _566  and  _567
REMARK  227  A    between atoms: _576  and  _578
REMARK  228  A    between atoms: _578  and  _579
REMARK  229  A    between atoms: _578  and  _581
REMARK  230  A    between atoms: _581  and  _582
REMARK  231  A    between atoms: _588  and  _590
REMARK  232  A    between atoms: _590  and  _591
REMARK  233  A    between atoms: _593  and  _595
REMARK  234  A    between atoms: _595  and  _596
REMARK  235  A    between atoms: _595  and  _598
REMARK  236  A    between atoms: _598  and  _599
REMARK  237  A    between atoms: _599  and  _600
REMARK  238  A    between atoms: _600  and  _601
REMARK                            x       y       z     vdW  Elec       q    Type
REMARK                         _______ _______ _______ _____ _____    ______ ____
ROOT
ATOM      1  O   HOH     1      18.159  49.983 -19.719  0.00  0.00    +0.000 OA
ENDROOT
TORSDOF 0
REMARK  Name = ../refined-set-2016/3hu3/3hu3_pocket.pdb
REMARK  238 active torsions:
REMARK  status: ('A' for Active; 'I' for Inactive)
REMARK    1  A    between atoms: _1  and  _3
REMARK    2  A    between atoms: _3  and  _4
REMARK    3  A    between atoms: _3  and  _6
REMARK    4  A    between atoms: _9  and  _11
REMARK    5  A    between atoms: _11  and  _12
REMARK    6  A    between atoms: _11  and  _14
REMARK    7  A    between atoms: _14  and  _15
REMARK    8  A    between atoms: _20  and  _21
REMARK    9  A    between atoms: _23  and  _25
REMARK   10  A    between atoms: _25  and  _26
REMARK   11  A    between atoms: _25  and  _28
REMARK   12  A    between atoms: _28  and  _29
REMARK   13  A    between atoms: _32  and  _34
REMARK   14  A    between atoms: _34  and  _35
REMARK   15  A    between atoms: _34  and  _37
REMARK   16  A    between atoms: _37  and  _38
REMARK   17  A    between atoms: _41  and  _43
REMARK   18  A    between atoms: _43  and  _44
REMARK   19  A    between atoms: _43  and  _46
REMARK   20  A    between atoms: _46  and  _47
REMARK   21  A    between atoms: _50  and  _52
REMARK   22  A    between atoms: _52  and  _53
REMARK   23  A    between atoms: _55  and  _57
REMARK   24  A    between atoms: _57  and  _58
REMARK   25  A    between atoms: _60  and  _62
REMARK   26  A    between atoms: _62  and  _63
REMARK   27  A    between atoms: _62  and  _65
REMARK   28  A    between atoms: _67  and  _69
REMARK   29  A    between atoms: _69  and  _70
REMARK   30  A    between atoms: _69  and  _72
REMARK   31  A    between atoms: _72  and  _73
REMARK   32  A    between atoms: _73  and  _74
REMARK   33  A    between atoms: _74  and  _75
REMARK   34  A    between atoms: _84  and  _86
REMARK   35  A    between atoms: _86  and  _87
REMARK   36  A    between atoms: _86  and  _89
REMARK   37  A    between atoms: _89  and  _90
REMARK   38  A    between atoms: _90  and  _91
REMARK   39  A    between atoms: _96  and  _98
REMARK   40  A    between atoms: _98  and  _99
REMARK   41  A    between atoms: _98  and  _101
REMARK   42  A    between atoms: _101  and  _102
REMARK   43  A    between atoms: _105  and  _107
REMARK   44  A    between atoms: _107  and  _108
REMARK   45  A    between atoms: _107  and  _110
REMARK   46  A    between atoms: _110  and  _111
REMARK   47  A    between atoms: _114  and  _116
REMARK   48  A    between atoms: _116  and  _117
REMARK   49  A    between atoms: _116  and  _119
REMARK   50  A    between atoms: _119  and  _120
REMARK   51  A    between atoms: _125  and  _126
REMARK   52  A    between atoms: _128  and  _130
REMARK   53  A    between atoms: _130  and  _131
REMARK   54  A    between atoms: _134  and  _135
REMARK   55  A    between atoms: _141  and  _142
REMARK   56  A    between atoms: _147  and  _149
REMARK   57  A    between atoms: _149  and  _150
REMARK   58  A    between atoms: _152  and  _154
REMARK   59  A    between atoms: _154  and  _155
REMARK   60  A    between atoms: _154  and  _157
REMARK   61  A    between atoms: _157  and  _158
REMARK   62  A    between atoms: _161  and  _163
REMARK   63  A    between atoms: _163  and  _164
REMARK   64  A    between atoms: _166  and  _168
REMARK   65  A    between atoms: _168  and  _169
REMARK   66  A    between atoms: _168  and  _171
REMARK   67  A    between atoms: _171  and  _172
REMARK   68  A    between atoms: _172  and  _173
REMARK   69  A    between atoms: _173  and  _174
REMARK   70  A    between atoms: _174  and  _175
REMARK   71  A    between atoms: _179  and  _181
REMARK   72  A    between atoms: _181  and  _182
REMARK   73  A    between atoms: _181  and  _184
REMARK   74  A    between atoms: _184  and  _185
REMARK   75  A    between atoms: _188  and  _190
REMARK   76  A    between atoms: _190  and  _191
REMARK   77  A    between atoms: _190  and  _193
REMARK   78  A    between atoms: _193  and  _194
REMARK   79  A    between atoms: _197  and  _199
REMARK   80  A    between atoms: _199  and  _200
REMARK   81  A    between atoms: _199  and  _202
REMARK   82  A    between atoms: _202  and  _203
REMARK   83  A    between atoms: _206  and  _208
REMARK   84  A    between atoms: _208  and  _209
REMARK   85  A    between atoms: _212  and  _214
REMARK   86  A    between atoms: _214  and  _215
REMARK   87  A    between atoms: _214  and  _217
REMARK   88  A    between atoms: _217  and  _218
REMARK   89  A    between atoms: _218  and  _219
REMARK   90  A    between atoms: _219  and  _220
REMARK   91  A    between atoms: _229  and  _231
REMARK   92  A    between atoms: _231  and  _232
REMARK   93  A    between atoms: _235  and  _237
REMARK   94  A    between atoms: _237  and  _238
REMARK   95  A    between atoms: _237  and  _240
REMARK   96  A    between atoms: _240  and  _241
REMARK   97  A    between atoms: _247  and  _249
REMARK   98  A    between atoms: _249  and  _250
REMARK   99  A    between atoms: _249  and  _252
REMARK  100  A    between atoms: _252  and  _253
REMARK  101  A    between atoms: _256  and  _258
REMARK  102  A    between atoms: _258  and  _259
REMARK  103  A    between atoms: _258  and  _261
REMARK  104  A    between atoms: _261  and  _262
REMARK  105  A    between atoms: _262  and  _263
REMARK  106  A    between atoms: _266  and  _268
REMARK  107  A    between atoms: _268  and  _269
REMARK  108  A    between atoms: _268  and  _271
REMARK  109  A    between atoms: _271  and  _272
REMARK  110  A    between atoms: _275  and  _277
REMARK  111  A    between atoms: _277  and  _278
REMARK  112  A    between atoms: _281  and  _283
REMARK  113  A    between atoms: _283  and  _284
REMARK  114  A    between atoms: _283  and  _286
REMARK  115  A    between atoms: _286  and  _287
REMARK  116  A    between atoms: _290  and  _292
REMARK  117  A    between atoms: _292  and  _293
REMARK  118  A    between atoms: _292  and  _295
REMARK  119  A    between atoms: _295  and  _296
REMARK  120  A    between atoms: _301  and  _303
REMARK  121  A    between atoms: _303  and  _304
REMARK  122  A    between atoms: _303  and  _306
REMARK  123  A    between atoms: _306  and  _307
REMARK  124  A    between atoms: _307  and  _308
REMARK  125  A    between atoms: _308  and  _309
REMARK  126  A    between atoms: _318  and  _320
REMARK  127  A    between atoms: _320  and  _321
REMARK  128  A    between atoms: _320  and  _323
REMARK  129  A    between atoms: _323  and  _324
REMARK  130  A    between atoms: _327  and  _329
REMARK  131  A    between atoms: _329  and  _330
REMARK  132  A    between atoms: _333  and  _334
REMARK  133  A    between atoms: _339  and  _341
REMARK  134  A    between atoms: _341  and  _342
REMARK  135  A    between atoms: _344  and  _346
REMARK  136  A    between atoms: _346  and  _347
REMARK  137  A    between atoms: _346  and  _349
REMARK  138  A    between atoms: _349  and  _350
REMARK  139  A    between atoms: _350  and  _351
REMARK  140  A    between atoms: _351  and  _352
REMARK  141  A    between atoms: _361  and  _363
REMARK  142  A    between atoms: _363  and  _364
REMARK  143  A    between atoms: _363  and  _366
REMARK  144  A    between atoms: _366  and  _367
REMARK  145  A    between atoms: _367  and  _368
REMARK  146  A    between atoms: _371  and  _373
REMARK  147  A    between atoms: _373  and  _374
REMARK  148  A    between atoms: _373  and  _376
REMARK  149  A    between atoms: _376  and  _377
REMARK  150  A    between atoms: _380  and  _382
REMARK  151  A    between atoms: _382  and  _383
REMARK  152  A    between atoms: _382  and  _385
REMARK  153  A    between atoms: _385  and  _386
REMARK  154  A    between atoms: _389  and  _391
REMARK  155  A    between atoms: _391  and  _392
REMARK  156  A    between atoms: _391  and  _394
REMARK  157  A    between atoms: _394  and  _395
REMARK  158  A    between atoms: _395  and  _396
REMARK  159  A    between atoms: _401  and  _403
REMARK  160  A    between atoms: _403  and  _404
REMARK  161  A    between atoms: _403  and  _406
REMARK  162  A    between atoms: _406  and  _407
REMARK  163  A    between atoms: _410  and  _412
REMARK  164  A    between atoms: _412  and  _413
REMARK  165  A    between atoms: _412  and  _415
REMARK  166  A    between atoms: _415  and  _416
REMARK  167  A    between atoms: _421  and  _423
REMARK  168  A    between atoms: _423  and  _424
REMARK  169  A    between atoms: _423  and  _426
REMARK  170  A    between atoms: _429  and  _431
REMARK  171  A    between atoms: _431  and  _432
REMARK  172  A    between atoms: _434  and  _436
REMARK  173  A    between atoms: _436  and  _437
REMARK  174  A    between atoms: _440  and  _442
REMARK  175  A    between atoms: _442  and  _443
REMARK  176  A    between atoms: _442  and  _445
REMARK  177  A    between atoms: _445  and  _446
REMARK  178  A    between atoms: _449  and  _451
REMARK  179  A    between atoms: _451  and  _452
REMARK  180  A    between atoms: _451  and  _454
REMARK  181  A    between atoms: _454  and  _455
REMARK  182  A    between atoms: _458  and  _460
REMARK  183  A    between atoms: _460  and  _461
REMARK  184  A    between atoms: _464  and  _466
REMARK  185  A    between atoms: _466  and  _467
REMARK  186  A    between atoms: _470  and  _472
REMARK  187  A    between atoms: _472  and  _473
REMARK  188  A    between atoms: _472  and  _475
REMARK  189  A    between atoms: _475  and  _476
REMARK  190  A    between atoms: _478  and  _480
REMARK  191  A    between atoms: _480  and  _481
REMARK  192  A    between atoms: _480  and  _483
REMARK  193  A    between atoms: _483  and  _484
REMARK  194  A    between atoms: _484  and  _485
REMARK  195  A    between atoms: _485  and  _486
REMARK  196  A    between atoms: _486  and  _487
REMARK  197  A    between atoms: _491  and  _493
REMARK  198  A    between atoms: _493  and  _494
REMARK  199  A    between atoms: _493  and  _496
REMARK  200  A    between atoms: _496  and  _497
REMARK  201  A    between atoms: _497  and  _498
REMARK  202  A    between atoms: _498  and  _499
REMARK  203  A    between atoms: _508  and  _510
REMARK  204  A    between atoms: _510  and  _511
REMARK  205  A    between atoms: _510  and  _513
REMARK  206  A    between atoms: _513  and  _514
REMARK  207  A    between atoms: _517  and  _519
REMARK  208  A    between atoms: _519  and  _520
REMARK  209  A    between atoms: _519  and  _522
REMARK  210  A    between atoms: _522  and  _523
REMARK  211  A    between atoms: _523  and  _524
REMARK  212  A    between atoms: _530  and  _531
REMARK  213  A    between atoms: _536  and  _538
REMARK  214  A    between atoms: _538  and  _539
REMARK  215  A    between atoms: _542  and  _544
REMARK  216  A    between atoms: _544  and  _545
REMARK  217  A    between atoms: _544  and  _547
REMARK  218  A    between atoms: _547  and  _548
REMARK  219  A    between atoms: _548  and  _549
REMARK  220  A    between atoms: _549  and  _550
REMARK  221  A    between atoms: _559  and  _561
REMARK  222  A    between atoms: _561  and  _562
REMARK  223  A    between atoms: _561  and  _564
REMARK  224  A    between atoms: _564  and  _565
REMARK  225  A    between atoms: _565  and  _566
REMARK  226  A    between atoms: _566  and  _567
REMARK  227  A    between atoms: _576  and  _578
REMARK  228  A    between atoms: _578  and  _579
REMARK  229  A    between atoms: _578  and  _581
REMARK  230  A    between atoms: _581  and  _582
REMARK  231  A    between atoms: _588  and  _590
REMARK  232  A    between atoms: _590  and  _591
REMARK  233  A    between atoms: _593  and  _595
REMARK  234  A    between atoms: _595  and  _596
REMARK  235  A    between atoms: _595  and  _598
REMARK  236  A    between atoms: _598  and  _599
REMARK  237  A    between atoms: _599  and  _600
REMARK  238  A    between atoms: _600  and  _601
REMARK                            x       y       z     vdW  Elec       q    Type
REMARK                         _______ _______ _______ _____ _____    ______ ____
ROOT
ATOM      1  O   HOH     1      15.760  51.354 -20.487  0.00  0.00    +0.000 OA
ENDROOT
TORSDOF 0
REMARK  Name = ../refined-set-2016/3hu3/3hu3_pocket.pdb
REMARK  238 active torsions:
REMARK  status: ('A' for Active; 'I' for Inactive)
REMARK    1  A    between atoms: _1  and  _3
REMARK    2  A    between atoms: _3  and  _4
REMARK    3  A    between atoms: _3  and  _6
REMARK    4  A    between atoms: _9  and  _11
REMARK    5  A    between atoms: _11  and  _12
REMARK    6  A    between atoms: _11  and  _14
REMARK    7  A    between atoms: _14  and  _15
REMARK    8  A    between atoms: _20  and  _21
REMARK    9  A    between atoms: _23  and  _25
REMARK   10  A    between atoms: _25  and  _26
REMARK   11  A    between atoms: _25  and  _28
REMARK   12  A    between atoms: _28  and  _29
REMARK   13  A    between atoms: _32  and  _34
REMARK   14  A    between atoms: _34  and  _35
REMARK   15  A    between atoms: _34  and  _37
REMARK   16  A    between atoms: _37  and  _38
REMARK   17  A    between atoms: _41  and  _43
REMARK   18  A    between atoms: _43  and  _44
REMARK   19  A    between atoms: _43  and  _46
REMARK   20  A    between atoms: _46  and  _47
REMARK   21  A    between atoms: _50  and  _52
REMARK   22  A    between atoms: _52  and  _53
REMARK   23  A    between atoms: _55  and  _57
REMARK   24  A    between atoms: _57  and  _58
REMARK   25  A    between atoms: _60  and  _62
REMARK   26  A    between atoms: _62  and  _63
REMARK   27  A    between atoms: _62  and  _65
REMARK   28  A    between atoms: _67  and  _69
REMARK   29  A    between atoms: _69  and  _70
REMARK   30  A    between atoms: _69  and  _72
REMARK   31  A    between atoms: _72  and  _73
REMARK   32  A    between atoms: _73  and  _74
REMARK   33  A    between atoms: _74  and  _75
REMARK   34  A    between atoms: _84  and  _86
REMARK   35  A    between atoms: _86  and  _87
REMARK   36  A    between atoms: _86  and  _89
REMARK   37  A    between atoms: _89  and  _90
REMARK   38  A    between atoms: _90  and  _91
REMARK   39  A    between atoms: _96  and  _98
REMARK   40  A    between atoms: _98  and  _99
REMARK   41  A    between atoms: _98  and  _101
REMARK   42  A    between atoms: _101  and  _102
REMARK   43  A    between atoms: _105  and  _107
REMARK   44  A    between atoms: _107  and  _108
REMARK   45  A    between atoms: _107  and  _110
REMARK   46  A    between atoms: _110  and  _111
REMARK   47  A    between atoms: _114  and  _116
REMARK   48  A    between atoms: _116  and  _117
REMARK   49  A    between atoms: _116  and  _119
REMARK   50  A    between atoms: _119  and  _120
REMARK   51  A    between atoms: _125  and  _126
REMARK   52  A    between atoms: _128  and  _130
REMARK   53  A    between atoms: _130  and  _131
REMARK   54  A    between atoms: _134  and  _135
REMARK   55  A    between atoms: _141  and  _142
REMARK   56  A    between atoms: _147  and  _149
REMARK   57  A    between atoms: _149  and  _150
REMARK   58  A    between atoms: _152  and  _154
REMARK   59  A    between atoms: _154  and  _155
REMARK   60  A    between atoms: _154  and  _157
REMARK   61  A    between atoms: _157  and  _158
REMARK   62  A    between atoms: _161  and  _163
REMARK   63  A    between atoms: _163  and  _164
REMARK   64  A    between atoms: _166  and  _168
REMARK   65  A    between atoms: _168  and  _169
REMARK   66  A    between atoms: _168  and  _171
REMARK   67  A    between atoms: _171  and  _172
REMARK   68  A    between atoms: _172  and  _173
REMARK   69  A    between atoms: _173  and  _174
REMARK   70  A    between atoms: _174  and  _175
REMARK   71  A    between atoms: _179  and  _181
REMARK   72  A    between atoms: _181  and  _182
REMARK   73  A    between atoms: _181  and  _184
REMARK   74  A    between atoms: _184  and  _185
REMARK   75  A    between atoms: _188  and  _190
REMARK   76  A    between atoms: _190  and  _191
REMARK   77  A    between atoms: _190  and  _193
REMARK   78  A    between atoms: _193  and  _194
REMARK   79  A    between atoms: _197  and  _199
REMARK   80  A    between atoms: _199  and  _200
REMARK   81  A    between atoms: _199  and  _202
REMARK   82  A    between atoms: _202  and  _203
REMARK   83  A    between atoms: _206  and  _208
REMARK   84  A    between atoms: _208  and  _209
REMARK   85  A    between atoms: _212  and  _214
REMARK   86  A    between atoms: _214  and  _215
REMARK   87  A    between atoms: _214  and  _217
REMARK   88  A    between atoms: _217  and  _218
REMARK   89  A    between atoms: _218  and  _219
REMARK   90  A    between atoms: _219  and  _220
REMARK   91  A    between atoms: _229  and  _231
REMARK   92  A    between atoms: _231  and  _232
REMARK   93  A    between atoms: _235  and  _237
REMARK   94  A    between atoms: _237  and  _238
REMARK   95  A    between atoms: _237  and  _240
REMARK   96  A    between atoms: _240  and  _241
REMARK   97  A    between atoms: _247  and  _249
REMARK   98  A    between atoms: _249  and  _250
REMARK   99  A    between atoms: _249  and  _252
REMARK  100  A    between atoms: _252  and  _253
REMARK  101  A    between atoms: _256  and  _258
REMARK  102  A    between atoms: _258  and  _259
REMARK  103  A    between atoms: _258  and  _261
REMARK  104  A    between atoms: _261  and  _262
REMARK  105  A    between atoms: _262  and  _263
REMARK  106  A    between atoms: _266  and  _268
REMARK  107  A    between atoms: _268  and  _269
REMARK  108  A    between atoms: _268  and  _271
REMARK  109  A    between atoms: _271  and  _272
REMARK  110  A    between atoms: _275  and  _277
REMARK  111  A    between atoms: _277  and  _278
REMARK  112  A    between atoms: _281  and  _283
REMARK  113  A    between atoms: _283  and  _284
REMARK  114  A    between atoms: _283  and  _286
REMARK  115  A    between atoms: _286  and  _287
REMARK  116  A    between atoms: _290  and  _292
REMARK  117  A    between atoms: _292  and  _293
REMARK  118  A    between atoms: _292  and  _295
REMARK  119  A    between atoms: _295  and  _296
REMARK  120  A    between atoms: _301  and  _303
REMARK  121  A    between atoms: _303  and  _304
REMARK  122  A    between atoms: _303  and  _306
REMARK  123  A    between atoms: _306  and  _307
REMARK  124  A    between atoms: _307  and  _308
REMARK  125  A    between atoms: _308  and  _309
REMARK  126  A    between atoms: _318  and  _320
REMARK  127  A    between atoms: _320  and  _321
REMARK  128  A    between atoms: _320  and  _323
REMARK  129  A    between atoms: _323  and  _324
REMARK  130  A    between atoms: _327  and  _329
REMARK  131  A    between atoms: _329  and  _330
REMARK  132  A    between atoms: _333  and  _334
REMARK  133  A    between atoms: _339  and  _341
REMARK  134  A    between atoms: _341  and  _342
REMARK  135  A    between atoms: _344  and  _346
REMARK  136  A    between atoms: _346  and  _347
REMARK  137  A    between atoms: _346  and  _349
REMARK  138  A    between atoms: _349  and  _350
REMARK  139  A    between atoms: _350  and  _351
REMARK  140  A    between atoms: _351  and  _352
REMARK  141  A    between atoms: _361  and  _363
REMARK  142  A    between atoms: _363  and  _364
REMARK  143  A    between atoms: _363  and  _366
REMARK  144  A    between atoms: _366  and  _367
REMARK  145  A    between atoms: _367  and  _368
REMARK  146  A    between atoms: _371  and  _373
REMARK  147  A    between atoms: _373  and  _374
REMARK  148  A    between atoms: _373  and  _376
REMARK  149  A    between atoms: _376  and  _377
REMARK  150  A    between atoms: _380  and  _382
REMARK  151  A    between atoms: _382  and  _383
REMARK  152  A    between atoms: _382  and  _385
REMARK  153  A    between atoms: _385  and  _386
REMARK  154  A    between atoms: _389  and  _391
REMARK  155  A    between atoms: _391  and  _392
REMARK  156  A    between atoms: _391  and  _394
REMARK  157  A    between atoms: _394  and  _395
REMARK  158  A    between atoms: _395  and  _396
REMARK  159  A    between atoms: _401  and  _403
REMARK  160  A    between atoms: _403  and  _404
REMARK  161  A    between atoms: _403  and  _406
REMARK  162  A    between atoms: _406  and  _407
REMARK  163  A    between atoms: _410  and  _412
REMARK  164  A    between atoms: _412  and  _413
REMARK  165  A    between atoms: _412  and  _415
REMARK  166  A    between atoms: _415  and  _416
REMARK  167  A    between atoms: _421  and  _423
REMARK  168  A    between atoms: _423  and  _424
REMARK  169  A    between atoms: _423  and  _426
REMARK  170  A    between atoms: _429  and  _431
REMARK  171  A    between atoms: _431  and  _432
REMARK  172  A    between atoms: _434  and  _436
REMARK  173  A    between atoms: _436  and  _437
REMARK  174  A    between atoms: _440  and  _442
REMARK  175  A    between atoms: _442  and  _443
REMARK  176  A    between atoms: _442  and  _445
REMARK  177  A    between atoms: _445  and  _446
REMARK  178  A    between atoms: _449  and  _451
REMARK  179  A    between atoms: _451  and  _452
REMARK  180  A    between atoms: _451  and  _454
REMARK  181  A    between atoms: _454  and  _455
REMARK  182  A    between atoms: _458  and  _460
REMARK  183  A    between atoms: _460  and  _461
REMARK  184  A    between atoms: _464  and  _466
REMARK  185  A    between atoms: _466  and  _467
REMARK  186  A    between atoms: _470  and  _472
REMARK  187  A    between atoms: _472  and  _473
REMARK  188  A    between atoms: _472  and  _475
REMARK  189  A    between atoms: _475  and  _476
REMARK  190  A    between atoms: _478  and  _480
REMARK  191  A    between atoms: _480  and  _481
REMARK  192  A    between atoms: _480  and  _483
REMARK  193  A    between atoms: _483  and  _484
REMARK  194  A    between atoms: _484  and  _485
REMARK  195  A    between atoms: _485  and  _486
REMARK  196  A    between atoms: _486  and  _487
REMARK  197  A    between atoms: _491  and  _493
REMARK  198  A    between atoms: _493  and  _494
REMARK  199  A    between atoms: _493  and  _496
REMARK  200  A    between atoms: _496  and  _497
REMARK  201  A    between atoms: _497  and  _498
REMARK  202  A    between atoms: _498  and  _499
REMARK  203  A    between atoms: _508  and  _510
REMARK  204  A    between atoms: _510  and  _511
REMARK  205  A    between atoms: _510  and  _513
REMARK  206  A    between atoms: _513  and  _514
REMARK  207  A    between atoms: _517  and  _519
REMARK  208  A    between atoms: _519  and  _520
REMARK  209  A    between atoms: _519  and  _522
REMARK  210  A    between atoms: _522  and  _523
REMARK  211  A    between atoms: _523  and  _524
REMARK  212  A    between atoms: _530  and  _531
REMARK  213  A    between atoms: _536  and  _538
REMARK  214  A    between atoms: _538  and  _539
REMARK  215  A    between atoms: _542  and  _544
REMARK  216  A    between atoms: _544  and  _545
REMARK  217  A    between atoms: _544  and  _547
REMARK  218  A    between atoms: _547  and  _548
REMARK  219  A    between atoms: _548  and  _549
REMARK  220  A    between atoms: _549  and  _550
REMARK  221  A    between atoms: _559  and  _561
REMARK  222  A    between atoms: _561  and  _562
REMARK  223  A    between atoms: _561  and  _564
REMARK  224  A    between atoms: _564  and  _565
REMARK  225  A    between atoms: _565  and  _566
REMARK  226  A    between atoms: _566  and  _567
REMARK  227  A    between atoms: _576  and  _578
REMARK  228  A    between atoms: _578  and  _579
REMARK  229  A    between atoms: _578  and  _581
REMARK  230  A    between atoms: _581  and  _582
REMARK  231  A    between atoms: _588  and  _590
REMARK  232  A    between atoms: _590  and  _591
REMARK  233  A    between atoms: _593  and  _595
REMARK  234  A    between atoms: _595  and  _596
REMARK  235  A    between atoms: _595  and  _598
REMARK  236  A    between atoms: _598  and  _599
REMARK  237  A    between atoms: _599  and  _600
REMARK  238  A    between atoms: _600  and  _601
REMARK                            x       y       z     vdW  Elec       q    Type
REMARK                         _______ _______ _______ _____ _____    ______ ____
ROOT
ATOM      1  O   HOH     1      20.000  54.012  -3.234  0.00  0.00    +0.000 OA
ENDROOT
TORSDOF 0
REMARK  Name = ../refined-set-2016/3hu3/3hu3_pocket.pdb
REMARK  238 active torsions:
REMARK  status: ('A' for Active; 'I' for Inactive)
REMARK    1  A    between atoms: _1  and  _3
REMARK    2  A    between atoms: _3  and  _4
REMARK    3  A    between atoms: _3  and  _6
REMARK    4  A    between atoms: _9  and  _11
REMARK    5  A    between atoms: _11  and  _12
REMARK    6  A    between atoms: _11  and  _14
REMARK    7  A    between atoms: _14  and  _15
REMARK    8  A    between atoms: _20  and  _21
REMARK    9  A    between atoms: _23  and  _25
REMARK   10  A    between atoms: _25  and  _26
REMARK   11  A    between atoms: _25  and  _28
REMARK   12  A    between atoms: _28  and  _29
REMARK   13  A    between atoms: _32  and  _34
REMARK   14  A    between atoms: _34  and  _35
REMARK   15  A    between atoms: _34  and  _37
REMARK   16  A    between atoms: _37  and  _38
REMARK   17  A    between atoms: _41  and  _43
REMARK   18  A    between atoms: _43  and  _44
REMARK   19  A    between atoms: _43  and  _46
REMARK   20  A    between atoms: _46  and  _47
REMARK   21  A    between atoms: _50  and  _52
REMARK   22  A    between atoms: _52  and  _53
REMARK   23  A    between atoms: _55  and  _57
REMARK   24  A    between atoms: _57  and  _58
REMARK   25  A    between atoms: _60  and  _62
REMARK   26  A    between atoms: _62  and  _63
REMARK   27  A    between atoms: _62  and  _65
REMARK   28  A    between atoms: _67  and  _69
REMARK   29  A    between atoms: _69  and  _70
REMARK   30  A    between atoms: _69  and  _72
REMARK   31  A    between atoms: _72  and  _73
REMARK   32  A    between atoms: _73  and  _74
REMARK   33  A    between atoms: _74  and  _75
REMARK   34  A    between atoms: _84  and  _86
REMARK   35  A    between atoms: _86  and  _87
REMARK   36  A    between atoms: _86  and  _89
REMARK   37  A    between atoms: _89  and  _90
REMARK   38  A    between atoms: _90  and  _91
REMARK   39  A    between atoms: _96  and  _98
REMARK   40  A    between atoms: _98  and  _99
REMARK   41  A    between atoms: _98  and  _101
REMARK   42  A    between atoms: _101  and  _102
REMARK   43  A    between atoms: _105  and  _107
REMARK   44  A    between atoms: _107  and  _108
REMARK   45  A    between atoms: _107  and  _110
REMARK   46  A    between atoms: _110  and  _111
REMARK   47  A    between atoms: _114  and  _116
REMARK   48  A    between atoms: _116  and  _117
REMARK   49  A    between atoms: _116  and  _119
REMARK   50  A    between atoms: _119  and  _120
REMARK   51  A    between atoms: _125  and  _126
REMARK   52  A    between atoms: _128  and  _130
REMARK   53  A    between atoms: _130  and  _131
REMARK   54  A    between atoms: _134  and  _135
REMARK   55  A    between atoms: _141  and  _142
REMARK   56  A    between atoms: _147  and  _149
REMARK   57  A    between atoms: _149  and  _150
REMARK   58  A    between atoms: _152  and  _154
REMARK   59  A    between atoms: _154  and  _155
REMARK   60  A    between atoms: _154  and  _157
REMARK   61  A    between atoms: _157  and  _158
REMARK   62  A    between atoms: _161  and  _163
REMARK   63  A    between atoms: _163  and  _164
REMARK   64  A    between atoms: _166  and  _168
REMARK   65  A    between atoms: _168  and  _169
REMARK   66  A    between atoms: _168  and  _171
REMARK   67  A    between atoms: _171  and  _172
REMARK   68  A    between atoms: _172  and  _173
REMARK   69  A    between atoms: _173  and  _174
REMARK   70  A    between atoms: _174  and  _175
REMARK   71  A    between atoms: _179  and  _181
REMARK   72  A    between atoms: _181  and  _182
REMARK   73  A    between atoms: _181  and  _184
REMARK   74  A    between atoms: _184  and  _185
REMARK   75  A    between atoms: _188  and  _190
REMARK   76  A    between atoms: _190  and  _191
REMARK   77  A    between atoms: _190  and  _193
REMARK   78  A    between atoms: _193  and  _194
REMARK   79  A    between atoms: _197  and  _199
REMARK   80  A    between atoms: _199  and  _200
REMARK   81  A    between atoms: _199  and  _202
REMARK   82  A    between atoms: _202  and  _203
REMARK   83  A    between atoms: _206  and  _208
REMARK   84  A    between atoms: _208  and  _209
REMARK   85  A    between atoms: _212  and  _214
REMARK   86  A    between atoms: _214  and  _215
REMARK   87  A    between atoms: _214  and  _217
REMARK   88  A    between atoms: _217  and  _218
REMARK   89  A    between atoms: _218  and  _219
REMARK   90  A    between atoms: _219  and  _220
REMARK   91  A    between atoms: _229  and  _231
REMARK   92  A    between atoms: _231  and  _232
REMARK   93  A    between atoms: _235  and  _237
REMARK   94  A    between atoms: _237  and  _238
REMARK   95  A    between atoms: _237  and  _240
REMARK   96  A    between atoms: _240  and  _241
REMARK   97  A    between atoms: _247  and  _249
REMARK   98  A    between atoms: _249  and  _250
REMARK   99  A    between atoms: _249  and  _252
REMARK  100  A    between atoms: _252  and  _253
REMARK  101  A    between atoms: _256  and  _258
REMARK  102  A    between atoms: _258  and  _259
REMARK  103  A    between atoms: _258  and  _261
REMARK  104  A    between atoms: _261  and  _262
REMARK  105  A    between atoms: _262  and  _263
REMARK  106  A    between atoms: _266  and  _268
REMARK  107  A    between atoms: _268  and  _269
REMARK  108  A    between atoms: _268  and  _271
REMARK  109  A    between atoms: _271  and  _272
REMARK  110  A    between atoms: _275  and  _277
REMARK  111  A    between atoms: _277  and  _278
REMARK  112  A    between atoms: _281  and  _283
REMARK  113  A    between atoms: _283  and  _284
REMARK  114  A    between atoms: _283  and  _286
REMARK  115  A    between atoms: _286  and  _287
REMARK  116  A    between atoms: _290  and  _292
REMARK  117  A    between atoms: _292  and  _293
REMARK  118  A    between atoms: _292  and  _295
REMARK  119  A    between atoms: _295  and  _296
REMARK  120  A    between atoms: _301  and  _303
REMARK  121  A    between atoms: _303  and  _304
REMARK  122  A    between atoms: _303  and  _306
REMARK  123  A    between atoms: _306  and  _307
REMARK  124  A    between atoms: _307  and  _308
REMARK  125  A    between atoms: _308  and  _309
REMARK  126  A    between atoms: _318  and  _320
REMARK  127  A    between atoms: _320  and  _321
REMARK  128  A    between atoms: _320  and  _323
REMARK  129  A    between atoms: _323  and  _324
REMARK  130  A    between atoms: _327  and  _329
REMARK  131  A    between atoms: _329  and  _330
REMARK  132  A    between atoms: _333  and  _334
REMARK  133  A    between atoms: _339  and  _341
REMARK  134  A    between atoms: _341  and  _342
REMARK  135  A    between atoms: _344  and  _346
REMARK  136  A    between atoms: _346  and  _347
REMARK  137  A    between atoms: _346  and  _349
REMARK  138  A    between atoms: _349  and  _350
REMARK  139  A    between atoms: _350  and  _351
REMARK  140  A    between atoms: _351  and  _352
REMARK  141  A    between atoms: _361  and  _363
REMARK  142  A    between atoms: _363  and  _364
REMARK  143  A    between atoms: _363  and  _366
REMARK  144  A    between atoms: _366  and  _367
REMARK  145  A    between atoms: _367  and  _368
REMARK  146  A    between atoms: _371  and  _373
REMARK  147  A    between atoms: _373  and  _374
REMARK  148  A    between atoms: _373  and  _376
REMARK  149  A    between atoms: _376  and  _377
REMARK  150  A    between atoms: _380  and  _382
REMARK  151  A    between atoms: _382  and  _383
REMARK  152  A    between atoms: _382  and  _385
REMARK  153  A    between atoms: _385  and  _386
REMARK  154  A    between atoms: _389  and  _391
REMARK  155  A    between atoms: _391  and  _392
REMARK  156  A    between atoms: _391  and  _394
REMARK  157  A    between atoms: _394  and  _395
REMARK  158  A    between atoms: _395  and  _396
REMARK  159  A    between atoms: _401  and  _403
REMARK  160  A    between atoms: _403  and  _404
REMARK  161  A    between atoms: _403  and  _406
REMARK  162  A    between atoms: _406  and  _407
REMARK  163  A    between atoms: _410  and  _412
REMARK  164  A    between atoms: _412  and  _413
REMARK  165  A    between atoms: _412  and  _415
REMARK  166  A    between atoms: _415  and  _416
REMARK  167  A    between atoms: _421  and  _423
REMARK  168  A    between atoms: _423  and  _424
REMARK  169  A    between atoms: _423  and  _426
REMARK  170  A    between atoms: _429  and  _431
REMARK  171  A    between atoms: _431  and  _432
REMARK  172  A    between atoms: _434  and  _436
REMARK  173  A    between atoms: _436  and  _437
REMARK  174  A    between atoms: _440  and  _442
REMARK  175  A    between atoms: _442  and  _443
REMARK  176  A    between atoms: _442  and  _445
REMARK  177  A    between atoms: _445  and  _446
REMARK  178  A    between atoms: _449  and  _451
REMARK  179  A    between atoms: _451  and  _452
REMARK  180  A    between atoms: _451  and  _454
REMARK  181  A    between atoms: _454  and  _455
REMARK  182  A    between atoms: _458  and  _460
REMARK  183  A    between atoms: _460  and  _461
REMARK  184  A    between atoms: _464  and  _466
REMARK  185  A    between atoms: _466  and  _467
REMARK  186  A    between atoms: _470  and  _472
REMARK  187  A    between atoms: _472  and  _473
REMARK  188  A    between atoms: _472  and  _475
REMARK  189  A    between atoms: _475  and  _476
REMARK  190  A    between atoms: _478  and  _480
REMARK  191  A    between atoms: _480  and  _481
REMARK  192  A    between atoms: _480  and  _483
REMARK  193  A    between atoms: _483  and  _484
REMARK  194  A    between atoms: _484  and  _485
REMARK  195  A    between atoms: _485  and  _486
REMARK  196  A    between atoms: _486  and  _487
REMARK  197  A    between atoms: _491  and  _493
REMARK  198  A    between atoms: _493  and  _494
REMARK  199  A    between atoms: _493  and  _496
REMARK  200  A    between atoms: _496  and  _497
REMARK  201  A    between atoms: _497  and  _498
REMARK  202  A    between atoms: _498  and  _499
REMARK  203  A    between atoms: _508  and  _510
REMARK  204  A    between atoms: _510  and  _511
REMARK  205  A    between atoms: _510  and  _513
REMARK  206  A    between atoms: _513  and  _514
REMARK  207  A    between atoms: _517  and  _519
REMARK  208  A    between atoms: _519  and  _520
REMARK  209  A    between atoms: _519  and  _522
REMARK  210  A    between atoms: _522  and  _523
REMARK  211  A    between atoms: _523  and  _524
REMARK  212  A    between atoms: _530  and  _531
REMARK  213  A    between atoms: _536  and  _538
REMARK  214  A    between atoms: _538  and  _539
REMARK  215  A    between atoms: _542  and  _544
REMARK  216  A    between atoms: _544  and  _545
REMARK  217  A    between atoms: _544  and  _547
REMARK  218  A    between atoms: _547  and  _548
REMARK  219  A    between atoms: _548  and  _549
REMARK  220  A    between atoms: _549  and  _550
REMARK  221  A    between atoms: _559  and  _561
REMARK  222  A    between atoms: _561  and  _562
REMARK  223  A    between atoms: _561  and  _564
REMARK  224  A    between atoms: _564  and  _565
REMARK  225  A    between atoms: _565  and  _566
REMARK  226  A    between atoms: _566  and  _567
REMARK  227  A    between atoms: _576  and  _578
REMARK  228  A    between atoms: _578  and  _579
REMARK  229  A    between atoms: _578  and  _581
REMARK  230  A    between atoms: _581  and  _582
REMARK  231  A    between atoms: _588  and  _590
REMARK  232  A    between atoms: _590  and  _591
REMARK  233  A    between atoms: _593  and  _595
REMARK  234  A    between atoms: _595  and  _596
REMARK  235  A    between atoms: _595  and  _598
REMARK  236  A    between atoms: _598  and  _599
REMARK  237  A    between atoms: _599  and  _600
REMARK  238  A    between atoms: _600  and  _601
REMARK                            x       y       z     vdW  Elec       q    Type
REMARK                         _______ _______ _______ _____ _____    ______ ____
ROOT
ATOM      1  O   HOH     1      17.571  53.175  -5.052  0.00  0.00    +0.000 OA
ENDROOT
TORSDOF 0
REMARK  Name = ../refined-set-2016/3hu3/3hu3_pocket.pdb
REMARK  238 active torsions:
REMARK  status: ('A' for Active; 'I' for Inactive)
REMARK    1  A    between atoms: _1  and  _3
REMARK    2  A    between atoms: _3  and  _4
REMARK    3  A    between atoms: _3  and  _6
REMARK    4  A    between atoms: _9  and  _11
REMARK    5  A    between atoms: _11  and  _12
REMARK    6  A    between atoms: _11  and  _14
REMARK    7  A    between atoms: _14  and  _15
REMARK    8  A    between atoms: _20  and  _21
REMARK    9  A    between atoms: _23  and  _25
REMARK   10  A    between atoms: _25  and  _26
REMARK   11  A    between atoms: _25  and  _28
REMARK   12  A    between atoms: _28  and  _29
REMARK   13  A    between atoms: _32  and  _34
REMARK   14  A    between atoms: _34  and  _35
REMARK   15  A    between atoms: _34  and  _37
REMARK   16  A    between atoms: _37  and  _38
REMARK   17  A    between atoms: _41  and  _43
REMARK   18  A    between atoms: _43  and  _44
REMARK   19  A    between atoms: _43  and  _46
REMARK   20  A    between atoms: _46  and  _47
REMARK   21  A    between atoms: _50  and  _52
REMARK   22  A    between atoms: _52  and  _53
REMARK   23  A    between atoms: _55  and  _57
REMARK   24  A    between atoms: _57  and  _58
REMARK   25  A    between atoms: _60  and  _62
REMARK   26  A    between atoms: _62  and  _63
REMARK   27  A    between atoms: _62  and  _65
REMARK   28  A    between atoms: _67  and  _69
REMARK   29  A    between atoms: _69  and  _70
REMARK   30  A    between atoms: _69  and  _72
REMARK   31  A    between atoms: _72  and  _73
REMARK   32  A    between atoms: _73  and  _74
REMARK   33  A    between atoms: _74  and  _75
REMARK   34  A    between atoms: _84  and  _86
REMARK   35  A    between atoms: _86  and  _87
REMARK   36  A    between atoms: _86  and  _89
REMARK   37  A    between atoms: _89  and  _90
REMARK   38  A    between atoms: _90  and  _91
REMARK   39  A    between atoms: _96  and  _98
REMARK   40  A    between atoms: _98  and  _99
REMARK   41  A    between atoms: _98  and  _101
REMARK   42  A    between atoms: _101  and  _102
REMARK   43  A    between atoms: _105  and  _107
REMARK   44  A    between atoms: _107  and  _108
REMARK   45  A    between atoms: _107  and  _110
REMARK   46  A    between atoms: _110  and  _111
REMARK   47  A    between atoms: _114  and  _116
REMARK   48  A    between atoms: _116  and  _117
REMARK   49  A    between atoms: _116  and  _119
REMARK   50  A    between atoms: _119  and  _120
REMARK   51  A    between atoms: _125  and  _126
REMARK   52  A    between atoms: _128  and  _130
REMARK   53  A    between atoms: _130  and  _131
REMARK   54  A    between atoms: _134  and  _135
REMARK   55  A    between atoms: _141  and  _142
REMARK   56  A    between atoms: _147  and  _149
REMARK   57  A    between atoms: _149  and  _150
REMARK   58  A    between atoms: _152  and  _154
REMARK   59  A    between atoms: _154  and  _155
REMARK   60  A    between atoms: _154  and  _157
REMARK   61  A    between atoms: _157  and  _158
REMARK   62  A    between atoms: _161  and  _163
REMARK   63  A    between atoms: _163  and  _164
REMARK   64  A    between atoms: _166  and  _168
REMARK   65  A    between atoms: _168  and  _169
REMARK   66  A    between atoms: _168  and  _171
REMARK   67  A    between atoms: _171  and  _172
REMARK   68  A    between atoms: _172  and  _173
REMARK   69  A    between atoms: _173  and  _174
REMARK   70  A    between atoms: _174  and  _175
REMARK   71  A    between atoms: _179  and  _181
REMARK   72  A    between atoms: _181  and  _182
REMARK   73  A    between atoms: _181  and  _184
REMARK   74  A    between atoms: _184  and  _185
REMARK   75  A    between atoms: _188  and  _190
REMARK   76  A    between atoms: _190  and  _191
REMARK   77  A    between atoms: _190  and  _193
REMARK   78  A    between atoms: _193  and  _194
REMARK   79  A    between atoms: _197  and  _199
REMARK   80  A    between atoms: _199  and  _200
REMARK   81  A    between atoms: _199  and  _202
REMARK   82  A    between atoms: _202  and  _203
REMARK   83  A    between atoms: _206  and  _208
REMARK   84  A    between atoms: _208  and  _209
REMARK   85  A    between atoms: _212  and  _214
REMARK   86  A    between atoms: _214  and  _215
REMARK   87  A    between atoms: _214  and  _217
REMARK   88  A    between atoms: _217  and  _218
REMARK   89  A    between atoms: _218  and  _219
REMARK   90  A    between atoms: _219  and  _220
REMARK   91  A    between atoms: _229  and  _231
REMARK   92  A    between atoms: _231  and  _232
REMARK   93  A    between atoms: _235  and  _237
REMARK   94  A    between atoms: _237  and  _238
REMARK   95  A    between atoms: _237  and  _240
REMARK   96  A    between atoms: _240  and  _241
REMARK   97  A    between atoms: _247  and  _249
REMARK   98  A    between atoms: _249  and  _250
REMARK   99  A    between atoms: _249  and  _252
REMARK  100  A    between atoms: _252  and  _253
REMARK  101  A    between atoms: _256  and  _258
REMARK  102  A    between atoms: _258  and  _259
REMARK  103  A    between atoms: _258  and  _261
REMARK  104  A    between atoms: _261  and  _262
REMARK  105  A    between atoms: _262  and  _263
REMARK  106  A    between atoms: _266  and  _268
REMARK  107  A    between atoms: _268  and  _269
REMARK  108  A    between atoms: _268  and  _271
REMARK  109  A    between atoms: _271  and  _272
REMARK  110  A    between atoms: _275  and  _277
REMARK  111  A    between atoms: _277  and  _278
REMARK  112  A    between atoms: _281  and  _283
REMARK  113  A    between atoms: _283  and  _284
REMARK  114  A    between atoms: _283  and  _286
REMARK  115  A    between atoms: _286  and  _287
REMARK  116  A    between atoms: _290  and  _292
REMARK  117  A    between atoms: _292  and  _293
REMARK  118  A    between atoms: _292  and  _295
REMARK  119  A    between atoms: _295  and  _296
REMARK  120  A    between atoms: _301  and  _303
REMARK  121  A    between atoms: _303  and  _304
REMARK  122  A    between atoms: _303  and  _306
REMARK  123  A    between atoms: _306  and  _307
REMARK  124  A    between atoms: _307  and  _308
REMARK  125  A    between atoms: _308  and  _309
REMARK  126  A    between atoms: _318  and  _320
REMARK  127  A    between atoms: _320  and  _321
REMARK  128  A    between atoms: _320  and  _323
REMARK  129  A    between atoms: _323  and  _324
REMARK  130  A    between atoms: _327  and  _329
REMARK  131  A    between atoms: _329  and  _330
REMARK  132  A    between atoms: _333  and  _334
REMARK  133  A    between atoms: _339  and  _341
REMARK  134  A    between atoms: _341  and  _342
REMARK  135  A    between atoms: _344  and  _346
REMARK  136  A    between atoms: _346  and  _347
REMARK  137  A    between atoms: _346  and  _349
REMARK  138  A    between atoms: _349  and  _350
REMARK  139  A    between atoms: _350  and  _351
REMARK  140  A    between atoms: _351  and  _352
REMARK  141  A    between atoms: _361  and  _363
REMARK  142  A    between atoms: _363  and  _364
REMARK  143  A    between atoms: _363  and  _366
REMARK  144  A    between atoms: _366  and  _367
REMARK  145  A    between atoms: _367  and  _368
REMARK  146  A    between atoms: _371  and  _373
REMARK  147  A    between atoms: _373  and  _374
REMARK  148  A    between atoms: _373  and  _376
REMARK  149  A    between atoms: _376  and  _377
REMARK  150  A    between atoms: _380  and  _382
REMARK  151  A    between atoms: _382  and  _383
REMARK  152  A    between atoms: _382  and  _385
REMARK  153  A    between atoms: _385  and  _386
REMARK  154  A    between atoms: _389  and  _391
REMARK  155  A    between atoms: _391  and  _392
REMARK  156  A    between atoms: _391  and  _394
REMARK  157  A    between atoms: _394  and  _395
REMARK  158  A    between atoms: _395  and  _396
REMARK  159  A    between atoms: _401  and  _403
REMARK  160  A    between atoms: _403  and  _404
REMARK  161  A    between atoms: _403  and  _406
REMARK  162  A    between atoms: _406  and  _407
REMARK  163  A    between atoms: _410  and  _412
REMARK  164  A    between atoms: _412  and  _413
REMARK  165  A    between atoms: _412  and  _415
REMARK  166  A    between atoms: _415  and  _416
REMARK  167  A    between atoms: _421  and  _423
REMARK  168  A    between atoms: _423  and  _424
REMARK  169  A    between atoms: _423  and  _426
REMARK  170  A    between atoms: _429  and  _431
REMARK  171  A    between atoms: _431  and  _432
REMARK  172  A    between atoms: _434  and  _436
REMARK  173  A    between atoms: _436  and  _437
REMARK  174  A    between atoms: _440  and  _442
REMARK  175  A    between atoms: _442  and  _443
REMARK  176  A    between atoms: _442  and  _445
REMARK  177  A    between atoms: _445  and  _446
REMARK  178  A    between atoms: _449  and  _451
REMARK  179  A    between atoms: _451  and  _452
REMARK  180  A    between atoms: _451  and  _454
REMARK  181  A    between atoms: _454  and  _455
REMARK  182  A    between atoms: _458  and  _460
REMARK  183  A    between atoms: _460  and  _461
REMARK  184  A    between atoms: _464  and  _466
REMARK  185  A    between atoms: _466  and  _467
REMARK  186  A    between atoms: _470  and  _472
REMARK  187  A    between atoms: _472  and  _473
REMARK  188  A    between atoms: _472  and  _475
REMARK  189  A    between atoms: _475  and  _476
REMARK  190  A    between atoms: _478  and  _480
REMARK  191  A    between atoms: _480  and  _481
REMARK  192  A    between atoms: _480  and  _483
REMARK  193  A    between atoms: _483  and  _484
REMARK  194  A    between atoms: _484  and  _485
REMARK  195  A    between atoms: _485  and  _486
REMARK  196  A    between atoms: _486  and  _487
REMARK  197  A    between atoms: _491  and  _493
REMARK  198  A    between atoms: _493  and  _494
REMARK  199  A    between atoms: _493  and  _496
REMARK  200  A    between atoms: _496  and  _497
REMARK  201  A    between atoms: _497  and  _498
REMARK  202  A    between atoms: _498  and  _499
REMARK  203  A    between atoms: _508  and  _510
REMARK  204  A    between atoms: _510  and  _511
REMARK  205  A    between atoms: _510  and  _513
REMARK  206  A    between atoms: _513  and  _514
REMARK  207  A    between atoms: _517  and  _519
REMARK  208  A    between atoms: _519  and  _520
REMARK  209  A    between atoms: _519  and  _522
REMARK  210  A    between atoms: _522  and  _523
REMARK  211  A    between atoms: _523  and  _524
REMARK  212  A    between atoms: _530  and  _531
REMARK  213  A    between atoms: _536  and  _538
REMARK  214  A    between atoms: _538  and  _539
REMARK  215  A    between atoms: _542  and  _544
REMARK  216  A    between atoms: _544  and  _545
REMARK  217  A    between atoms: _544  and  _547
REMARK  218  A    between atoms: _547  and  _548
REMARK  219  A    between atoms: _548  and  _549
REMARK  220  A    between atoms: _549  and  _550
REMARK  221  A    between atoms: _559  and  _561
REMARK  222  A    between atoms: _561  and  _562
REMARK  223  A    between atoms: _561  and  _564
REMARK  224  A    between atoms: _564  and  _565
REMARK  225  A    between atoms: _565  and  _566
REMARK  226  A    between atoms: _566  and  _567
REMARK  227  A    between atoms: _576  and  _578
REMARK  228  A    between atoms: _578  and  _579
REMARK  229  A    between atoms: _578  and  _581
REMARK  230  A    between atoms: _581  and  _582
REMARK  231  A    between atoms: _588  and  _590
REMARK  232  A    between atoms: _590  and  _591
REMARK  233  A    between atoms: _593  and  _595
REMARK  234  A    between atoms: _595  and  _596
REMARK  235  A    between atoms: _595  and  _598
REMARK  236  A    between atoms: _598  and  _599
REMARK  237  A    between atoms: _599  and  _600
REMARK  238  A    between atoms: _600  and  _601
REMARK                            x       y       z     vdW  Elec       q    Type
REMARK                         _______ _______ _______ _____ _____    ______ ____
ROOT
ATOM      1  O   HOH     1      15.011  54.201 -10.024  0.00  0.00    +0.000 OA
ENDROOT
TORSDOF 0
REMARK  Name = ../refined-set-2016/3hu3/3hu3_pocket.pdb
REMARK  238 active torsions:
REMARK  status: ('A' for Active; 'I' for Inactive)
REMARK    1  A    between atoms: _1  and  _3
REMARK    2  A    between atoms: _3  and  _4
REMARK    3  A    between atoms: _3  and  _6
REMARK    4  A    between atoms: _9  and  _11
REMARK    5  A    between atoms: _11  and  _12
REMARK    6  A    between atoms: _11  and  _14
REMARK    7  A    between atoms: _14  and  _15
REMARK    8  A    between atoms: _20  and  _21
REMARK    9  A    between atoms: _23  and  _25
REMARK   10  A    between atoms: _25  and  _26
REMARK   11  A    between atoms: _25  and  _28
REMARK   12  A    between atoms: _28  and  _29
REMARK   13  A    between atoms: _32  and  _34
REMARK   14  A    between atoms: _34  and  _35
REMARK   15  A    between atoms: _34  and  _37
REMARK   16  A    between atoms: _37  and  _38
REMARK   17  A    between atoms: _41  and  _43
REMARK   18  A    between atoms: _43  and  _44
REMARK   19  A    between atoms: _43  and  _46
REMARK   20  A    between atoms: _46  and  _47
REMARK   21  A    between atoms: _50  and  _52
REMARK   22  A    between atoms: _52  and  _53
REMARK   23  A    between atoms: _55  and  _57
REMARK   24  A    between atoms: _57  and  _58
REMARK   25  A    between atoms: _60  and  _62
REMARK   26  A    between atoms: _62  and  _63
REMARK   27  A    between atoms: _62  and  _65
REMARK   28  A    between atoms: _67  and  _69
REMARK   29  A    between atoms: _69  and  _70
REMARK   30  A    between atoms: _69  and  _72
REMARK   31  A    between atoms: _72  and  _73
REMARK   32  A    between atoms: _73  and  _74
REMARK   33  A    between atoms: _74  and  _75
REMARK   34  A    between atoms: _84  and  _86
REMARK   35  A    between atoms: _86  and  _87
REMARK   36  A    between atoms: _86  and  _89
REMARK   37  A    between atoms: _89  and  _90
REMARK   38  A    between atoms: _90  and  _91
REMARK   39  A    between atoms: _96  and  _98
REMARK   40  A    between atoms: _98  and  _99
REMARK   41  A    between atoms: _98  and  _101
REMARK   42  A    between atoms: _101  and  _102
REMARK   43  A    between atoms: _105  and  _107
REMARK   44  A    between atoms: _107  and  _108
REMARK   45  A    between atoms: _107  and  _110
REMARK   46  A    between atoms: _110  and  _111
REMARK   47  A    between atoms: _114  and  _116
REMARK   48  A    between atoms: _116  and  _117
REMARK   49  A    between atoms: _116  and  _119
REMARK   50  A    between atoms: _119  and  _120
REMARK   51  A    between atoms: _125  and  _126
REMARK   52  A    between atoms: _128  and  _130
REMARK   53  A    between atoms: _130  and  _131
REMARK   54  A    between atoms: _134  and  _135
REMARK   55  A    between atoms: _141  and  _142
REMARK   56  A    between atoms: _147  and  _149
REMARK   57  A    between atoms: _149  and  _150
REMARK   58  A    between atoms: _152  and  _154
REMARK   59  A    between atoms: _154  and  _155
REMARK   60  A    between atoms: _154  and  _157
REMARK   61  A    between atoms: _157  and  _158
REMARK   62  A    between atoms: _161  and  _163
REMARK   63  A    between atoms: _163  and  _164
REMARK   64  A    between atoms: _166  and  _168
REMARK   65  A    between atoms: _168  and  _169
REMARK   66  A    between atoms: _168  and  _171
REMARK   67  A    between atoms: _171  and  _172
REMARK   68  A    between atoms: _172  and  _173
REMARK   69  A    between atoms: _173  and  _174
REMARK   70  A    between atoms: _174  and  _175
REMARK   71  A    between atoms: _179  and  _181
REMARK   72  A    between atoms: _181  and  _182
REMARK   73  A    between atoms: _181  and  _184
REMARK   74  A    between atoms: _184  and  _185
REMARK   75  A    between atoms: _188  and  _190
REMARK   76  A    between atoms: _190  and  _191
REMARK   77  A    between atoms: _190  and  _193
REMARK   78  A    between atoms: _193  and  _194
REMARK   79  A    between atoms: _197  and  _199
REMARK   80  A    between atoms: _199  and  _200
REMARK   81  A    between atoms: _199  and  _202
REMARK   82  A    between atoms: _202  and  _203
REMARK   83  A    between atoms: _206  and  _208
REMARK   84  A    between atoms: _208  and  _209
REMARK   85  A    between atoms: _212  and  _214
REMARK   86  A    between atoms: _214  and  _215
REMARK   87  A    between atoms: _214  and  _217
REMARK   88  A    between atoms: _217  and  _218
REMARK   89  A    between atoms: _218  and  _219
REMARK   90  A    between atoms: _219  and  _220
REMARK   91  A    between atoms: _229  and  _231
REMARK   92  A    between atoms: _231  and  _232
REMARK   93  A    between atoms: _235  and  _237
REMARK   94  A    between atoms: _237  and  _238
REMARK   95  A    between atoms: _237  and  _240
REMARK   96  A    between atoms: _240  and  _241
REMARK   97  A    between atoms: _247  and  _249
REMARK   98  A    between atoms: _249  and  _250
REMARK   99  A    between atoms: _249  and  _252
REMARK  100  A    between atoms: _252  and  _253
REMARK  101  A    between atoms: _256  and  _258
REMARK  102  A    between atoms: _258  and  _259
REMARK  103  A    between atoms: _258  and  _261
REMARK  104  A    between atoms: _261  and  _262
REMARK  105  A    between atoms: _262  and  _263
REMARK  106  A    between atoms: _266  and  _268
REMARK  107  A    between atoms: _268  and  _269
REMARK  108  A    between atoms: _268  and  _271
REMARK  109  A    between atoms: _271  and  _272
REMARK  110  A    between atoms: _275  and  _277
REMARK  111  A    between atoms: _277  and  _278
REMARK  112  A    between atoms: _281  and  _283
REMARK  113  A    between atoms: _283  and  _284
REMARK  114  A    between atoms: _283  and  _286
REMARK  115  A    between atoms: _286  and  _287
REMARK  116  A    between atoms: _290  and  _292
REMARK  117  A    between atoms: _292  and  _293
REMARK  118  A    between atoms: _292  and  _295
REMARK  119  A    between atoms: _295  and  _296
REMARK  120  A    between atoms: _301  and  _303
REMARK  121  A    between atoms: _303  and  _304
REMARK  122  A    between atoms: _303  and  _306
REMARK  123  A    between atoms: _306  and  _307
REMARK  124  A    between atoms: _307  and  _308
REMARK  125  A    between atoms: _308  and  _309
REMARK  126  A    between atoms: _318  and  _320
REMARK  127  A    between atoms: _320  and  _321
REMARK  128  A    between atoms: _320  and  _323
REMARK  129  A    between atoms: _323  and  _324
REMARK  130  A    between atoms: _327  and  _329
REMARK  131  A    between atoms: _329  and  _330
REMARK  132  A    between atoms: _333  and  _334
REMARK  133  A    between atoms: _339  and  _341
REMARK  134  A    between atoms: _341  and  _342
REMARK  135  A    between atoms: _344  and  _346
REMARK  136  A    between atoms: _346  and  _347
REMARK  137  A    between atoms: _346  and  _349
REMARK  138  A    between atoms: _349  and  _350
REMARK  139  A    between atoms: _350  and  _351
REMARK  140  A    between atoms: _351  and  _352
REMARK  141  A    between atoms: _361  and  _363
REMARK  142  A    between atoms: _363  and  _364
REMARK  143  A    between atoms: _363  and  _366
REMARK  144  A    between atoms: _366  and  _367
REMARK  145  A    between atoms: _367  and  _368
REMARK  146  A    between atoms: _371  and  _373
REMARK  147  A    between atoms: _373  and  _374
REMARK  148  A    between atoms: _373  and  _376
REMARK  149  A    between atoms: _376  and  _377
REMARK  150  A    between atoms: _380  and  _382
REMARK  151  A    between atoms: _382  and  _383
REMARK  152  A    between atoms: _382  and  _385
REMARK  153  A    between atoms: _385  and  _386
REMARK  154  A    between atoms: _389  and  _391
REMARK  155  A    between atoms: _391  and  _392
REMARK  156  A    between atoms: _391  and  _394
REMARK  157  A    between atoms: _394  and  _395
REMARK  158  A    between atoms: _395  and  _396
REMARK  159  A    between atoms: _401  and  _403
REMARK  160  A    between atoms: _403  and  _404
REMARK  161  A    between atoms: _403  and  _406
REMARK  162  A    between atoms: _406  and  _407
REMARK  163  A    between atoms: _410  and  _412
REMARK  164  A    between atoms: _412  and  _413
REMARK  165  A    between atoms: _412  and  _415
REMARK  166  A    between atoms: _415  and  _416
REMARK  167  A    between atoms: _421  and  _423
REMARK  168  A    between atoms: _423  and  _424
REMARK  169  A    between atoms: _423  and  _426
REMARK  170  A    between atoms: _429  and  _431
REMARK  171  A    between atoms: _431  and  _432
REMARK  172  A    between atoms: _434  and  _436
REMARK  173  A    between atoms: _436  and  _437
REMARK  174  A    between atoms: _440  and  _442
REMARK  175  A    between atoms: _442  and  _443
REMARK  176  A    between atoms: _442  and  _445
REMARK  177  A    between atoms: _445  and  _446
REMARK  178  A    between atoms: _449  and  _451
REMARK  179  A    between atoms: _451  and  _452
REMARK  180  A    between atoms: _451  and  _454
REMARK  181  A    between atoms: _454  and  _455
REMARK  182  A    between atoms: _458  and  _460
REMARK  183  A    between atoms: _460  and  _461
REMARK  184  A    between atoms: _464  and  _466
REMARK  185  A    between atoms: _466  and  _467
REMARK  186  A    between atoms: _470  and  _472
REMARK  187  A    between atoms: _472  and  _473
REMARK  188  A    between atoms: _472  and  _475
REMARK  189  A    between atoms: _475  and  _476
REMARK  190  A    between atoms: _478  and  _480
REMARK  191  A    between atoms: _480  and  _481
REMARK  192  A    between atoms: _480  and  _483
REMARK  193  A    between atoms: _483  and  _484
REMARK  194  A    between atoms: _484  and  _485
REMARK  195  A    between atoms: _485  and  _486
REMARK  196  A    between atoms: _486  and  _487
REMARK  197  A    between atoms: _491  and  _493
REMARK  198  A    between atoms: _493  and  _494
REMARK  199  A    between atoms: _493  and  _496
REMARK  200  A    between atoms: _496  and  _497
REMARK  201  A    between atoms: _497  and  _498
REMARK  202  A    between atoms: _498  and  _499
REMARK  203  A    between atoms: _508  and  _510
REMARK  204  A    between atoms: _510  and  _511
REMARK  205  A    between atoms: _510  and  _513
REMARK  206  A    between atoms: _513  and  _514
REMARK  207  A    between atoms: _517  and  _519
REMARK  208  A    between atoms: _519  and  _520
REMARK  209  A    between atoms: _519  and  _522
REMARK  210  A    between atoms: _522  and  _523
REMARK  211  A    between atoms: _523  and  _524
REMARK  212  A    between atoms: _530  and  _531
REMARK  213  A    between atoms: _536  and  _538
REMARK  214  A    between atoms: _538  and  _539
REMARK  215  A    between atoms: _542  and  _544
REMARK  216  A    between atoms: _544  and  _545
REMARK  217  A    between atoms: _544  and  _547
REMARK  218  A    between atoms: _547  and  _548
REMARK  219  A    between atoms: _548  and  _549
REMARK  220  A    between atoms: _549  and  _550
REMARK  221  A    between atoms: _559  and  _561
REMARK  222  A    between atoms: _561  and  _562
REMARK  223  A    between atoms: _561  and  _564
REMARK  224  A    between atoms: _564  and  _565
REMARK  225  A    between atoms: _565  and  _566
REMARK  226  A    between atoms: _566  and  _567
REMARK  227  A    between atoms: _576  and  _578
REMARK  228  A    between atoms: _578  and  _579
REMARK  229  A    between atoms: _578  and  _581
REMARK  230  A    between atoms: _581  and  _582
REMARK  231  A    between atoms: _588  and  _590
REMARK  232  A    between atoms: _590  and  _591
REMARK  233  A    between atoms: _593  and  _595
REMARK  234  A    between atoms: _595  and  _596
REMARK  235  A    between atoms: _595  and  _598
REMARK  236  A    between atoms: _598  and  _599
REMARK  237  A    between atoms: _599  and  _600
REMARK  238  A    between atoms: _600  and  _601
REMARK                            x       y       z     vdW  Elec       q    Type
REMARK                         _______ _______ _______ _____ _____    ______ ____
ROOT
ATOM      1  O   HOH     1      17.857  58.549 -11.667  0.00  0.00    +0.000 OA
ENDROOT
TORSDOF 0
REMARK  Name = ../refined-set-2016/3hu3/3hu3_pocket.pdb
REMARK  238 active torsions:
REMARK  status: ('A' for Active; 'I' for Inactive)
REMARK    1  A    between atoms: _1  and  _3
REMARK    2  A    between atoms: _3  and  _4
REMARK    3  A    between atoms: _3  and  _6
REMARK    4  A    between atoms: _9  and  _11
REMARK    5  A    between atoms: _11  and  _12
REMARK    6  A    between atoms: _11  and  _14
REMARK    7  A    between atoms: _14  and  _15
REMARK    8  A    between atoms: _20  and  _21
REMARK    9  A    between atoms: _23  and  _25
REMARK   10  A    between atoms: _25  and  _26
REMARK   11  A    between atoms: _25  and  _28
REMARK   12  A    between atoms: _28  and  _29
REMARK   13  A    between atoms: _32  and  _34
REMARK   14  A    between atoms: _34  and  _35
REMARK   15  A    between atoms: _34  and  _37
REMARK   16  A    between atoms: _37  and  _38
REMARK   17  A    between atoms: _41  and  _43
REMARK   18  A    between atoms: _43  and  _44
REMARK   19  A    between atoms: _43  and  _46
REMARK   20  A    between atoms: _46  and  _47
REMARK   21  A    between atoms: _50  and  _52
REMARK   22  A    between atoms: _52  and  _53
REMARK   23  A    between atoms: _55  and  _57
REMARK   24  A    between atoms: _57  and  _58
REMARK   25  A    between atoms: _60  and  _62
REMARK   26  A    between atoms: _62  and  _63
REMARK   27  A    between atoms: _62  and  _65
REMARK   28  A    between atoms: _67  and  _69
REMARK   29  A    between atoms: _69  and  _70
REMARK   30  A    between atoms: _69  and  _72
REMARK   31  A    between atoms: _72  and  _73
REMARK   32  A    between atoms: _73  and  _74
REMARK   33  A    between atoms: _74  and  _75
REMARK   34  A    between atoms: _84  and  _86
REMARK   35  A    between atoms: _86  and  _87
REMARK   36  A    between atoms: _86  and  _89
REMARK   37  A    between atoms: _89  and  _90
REMARK   38  A    between atoms: _90  and  _91
REMARK   39  A    between atoms: _96  and  _98
REMARK   40  A    between atoms: _98  and  _99
REMARK   41  A    between atoms: _98  and  _101
REMARK   42  A    between atoms: _101  and  _102
REMARK   43  A    between atoms: _105  and  _107
REMARK   44  A    between atoms: _107  and  _108
REMARK   45  A    between atoms: _107  and  _110
REMARK   46  A    between atoms: _110  and  _111
REMARK   47  A    between atoms: _114  and  _116
REMARK   48  A    between atoms: _116  and  _117
REMARK   49  A    between atoms: _116  and  _119
REMARK   50  A    between atoms: _119  and  _120
REMARK   51  A    between atoms: _125  and  _126
REMARK   52  A    between atoms: _128  and  _130
REMARK   53  A    between atoms: _130  and  _131
REMARK   54  A    between atoms: _134  and  _135
REMARK   55  A    between atoms: _141  and  _142
REMARK   56  A    between atoms: _147  and  _149
REMARK   57  A    between atoms: _149  and  _150
REMARK   58  A    between atoms: _152  and  _154
REMARK   59  A    between atoms: _154  and  _155
REMARK   60  A    between atoms: _154  and  _157
REMARK   61  A    between atoms: _157  and  _158
REMARK   62  A    between atoms: _161  and  _163
REMARK   63  A    between atoms: _163  and  _164
REMARK   64  A    between atoms: _166  and  _168
REMARK   65  A    between atoms: _168  and  _169
REMARK   66  A    between atoms: _168  and  _171
REMARK   67  A    between atoms: _171  and  _172
REMARK   68  A    between atoms: _172  and  _173
REMARK   69  A    between atoms: _173  and  _174
REMARK   70  A    between atoms: _174  and  _175
REMARK   71  A    between atoms: _179  and  _181
REMARK   72  A    between atoms: _181  and  _182
REMARK   73  A    between atoms: _181  and  _184
REMARK   74  A    between atoms: _184  and  _185
REMARK   75  A    between atoms: _188  and  _190
REMARK   76  A    between atoms: _190  and  _191
REMARK   77  A    between atoms: _190  and  _193
REMARK   78  A    between atoms: _193  and  _194
REMARK   79  A    between atoms: _197  and  _199
REMARK   80  A    between atoms: _199  and  _200
REMARK   81  A    between atoms: _199  and  _202
REMARK   82  A    between atoms: _202  and  _203
REMARK   83  A    between atoms: _206  and  _208
REMARK   84  A    between atoms: _208  and  _209
REMARK   85  A    between atoms: _212  and  _214
REMARK   86  A    between atoms: _214  and  _215
REMARK   87  A    between atoms: _214  and  _217
REMARK   88  A    between atoms: _217  and  _218
REMARK   89  A    between atoms: _218  and  _219
REMARK   90  A    between atoms: _219  and  _220
REMARK   91  A    between atoms: _229  and  _231
REMARK   92  A    between atoms: _231  and  _232
REMARK   93  A    between atoms: _235  and  _237
REMARK   94  A    between atoms: _237  and  _238
REMARK   95  A    between atoms: _237  and  _240
REMARK   96  A    between atoms: _240  and  _241
REMARK   97  A    between atoms: _247  and  _249
REMARK   98  A    between atoms: _249  and  _250
REMARK   99  A    between atoms: _249  and  _252
REMARK  100  A    between atoms: _252  and  _253
REMARK  101  A    between atoms: _256  and  _258
REMARK  102  A    between atoms: _258  and  _259
REMARK  103  A    between atoms: _258  and  _261
REMARK  104  A    between atoms: _261  and  _262
REMARK  105  A    between atoms: _262  and  _263
REMARK  106  A    between atoms: _266  and  _268
REMARK  107  A    between atoms: _268  and  _269
REMARK  108  A    between atoms: _268  and  _271
REMARK  109  A    between atoms: _271  and  _272
REMARK  110  A    between atoms: _275  and  _277
REMARK  111  A    between atoms: _277  and  _278
REMARK  112  A    between atoms: _281  and  _283
REMARK  113  A    between atoms: _283  and  _284
REMARK  114  A    between atoms: _283  and  _286
REMARK  115  A    between atoms: _286  and  _287
REMARK  116  A    between atoms: _290  and  _292
REMARK  117  A    between atoms: _292  and  _293
REMARK  118  A    between atoms: _292  and  _295
REMARK  119  A    between atoms: _295  and  _296
REMARK  120  A    between atoms: _301  and  _303
REMARK  121  A    between atoms: _303  and  _304
REMARK  122  A    between atoms: _303  and  _306
REMARK  123  A    between atoms: _306  and  _307
REMARK  124  A    between atoms: _307  and  _308
REMARK  125  A    between atoms: _308  and  _309
REMARK  126  A    between atoms: _318  and  _320
REMARK  127  A    between atoms: _320  and  _321
REMARK  128  A    between atoms: _320  and  _323
REMARK  129  A    between atoms: _323  and  _324
REMARK  130  A    between atoms: _327  and  _329
REMARK  131  A    between atoms: _329  and  _330
REMARK  132  A    between atoms: _333  and  _334
REMARK  133  A    between atoms: _339  and  _341
REMARK  134  A    between atoms: _341  and  _342
REMARK  135  A    between atoms: _344  and  _346
REMARK  136  A    between atoms: _346  and  _347
REMARK  137  A    between atoms: _346  and  _349
REMARK  138  A    between atoms: _349  and  _350
REMARK  139  A    between atoms: _350  and  _351
REMARK  140  A    between atoms: _351  and  _352
REMARK  141  A    between atoms: _361  and  _363
REMARK  142  A    between atoms: _363  and  _364
REMARK  143  A    between atoms: _363  and  _366
REMARK  144  A    between atoms: _366  and  _367
REMARK  145  A    between atoms: _367  and  _368
REMARK  146  A    between atoms: _371  and  _373
REMARK  147  A    between atoms: _373  and  _374
REMARK  148  A    between atoms: _373  and  _376
REMARK  149  A    between atoms: _376  and  _377
REMARK  150  A    between atoms: _380  and  _382
REMARK  151  A    between atoms: _382  and  _383
REMARK  152  A    between atoms: _382  and  _385
REMARK  153  A    between atoms: _385  and  _386
REMARK  154  A    between atoms: _389  and  _391
REMARK  155  A    between atoms: _391  and  _392
REMARK  156  A    between atoms: _391  and  _394
REMARK  157  A    between atoms: _394  and  _395
REMARK  158  A    between atoms: _395  and  _396
REMARK  159  A    between atoms: _401  and  _403
REMARK  160  A    between atoms: _403  and  _404
REMARK  161  A    between atoms: _403  and  _406
REMARK  162  A    between atoms: _406  and  _407
REMARK  163  A    between atoms: _410  and  _412
REMARK  164  A    between atoms: _412  and  _413
REMARK  165  A    between atoms: _412  and  _415
REMARK  166  A    between atoms: _415  and  _416
REMARK  167  A    between atoms: _421  and  _423
REMARK  168  A    between atoms: _423  and  _424
REMARK  169  A    between atoms: _423  and  _426
REMARK  170  A    between atoms: _429  and  _431
REMARK  171  A    between atoms: _431  and  _432
REMARK  172  A    between atoms: _434  and  _436
REMARK  173  A    between atoms: _436  and  _437
REMARK  174  A    between atoms: _440  and  _442
REMARK  175  A    between atoms: _442  and  _443
REMARK  176  A    between atoms: _442  and  _445
REMARK  177  A    between atoms: _445  and  _446
REMARK  178  A    between atoms: _449  and  _451
REMARK  179  A    between atoms: _451  and  _452
REMARK  180  A    between atoms: _451  and  _454
REMARK  181  A    between atoms: _454  and  _455
REMARK  182  A    between atoms: _458  and  _460
REMARK  183  A    between atoms: _460  and  _461
REMARK  184  A    between atoms: _464  and  _466
REMARK  185  A    between atoms: _466  and  _467
REMARK  186  A    between atoms: _470  and  _472
REMARK  187  A    between atoms: _472  and  _473
REMARK  188  A    between atoms: _472  and  _475
REMARK  189  A    between atoms: _475  and  _476
REMARK  190  A    between atoms: _478  and  _480
REMARK  191  A    between atoms: _480  and  _481
REMARK  192  A    between atoms: _480  and  _483
REMARK  193  A    between atoms: _483  and  _484
REMARK  194  A    between atoms: _484  and  _485
REMARK  195  A    between atoms: _485  and  _486
REMARK  196  A    between atoms: _486  and  _487
REMARK  197  A    between atoms: _491  and  _493
REMARK  198  A    between atoms: _493  and  _494
REMARK  199  A    between atoms: _493  and  _496
REMARK  200  A    between atoms: _496  and  _497
REMARK  201  A    between atoms: _497  and  _498
REMARK  202  A    between atoms: _498  and  _499
REMARK  203  A    between atoms: _508  and  _510
REMARK  204  A    between atoms: _510  and  _511
REMARK  205  A    between atoms: _510  and  _513
REMARK  206  A    between atoms: _513  and  _514
REMARK  207  A    between atoms: _517  and  _519
REMARK  208  A    between atoms: _519  and  _520
REMARK  209  A    between atoms: _519  and  _522
REMARK  210  A    between atoms: _522  and  _523
REMARK  211  A    between atoms: _523  and  _524
REMARK  212  A    between atoms: _530  and  _531
REMARK  213  A    between atoms: _536  and  _538
REMARK  214  A    between atoms: _538  and  _539
REMARK  215  A    between atoms: _542  and  _544
REMARK  216  A    between atoms: _544  and  _545
REMARK  217  A    between atoms: _544  and  _547
REMARK  218  A    between atoms: _547  and  _548
REMARK  219  A    between atoms: _548  and  _549
REMARK  220  A    between atoms: _549  and  _550
REMARK  221  A    between atoms: _559  and  _561
REMARK  222  A    between atoms: _561  and  _562
REMARK  223  A    between atoms: _561  and  _564
REMARK  224  A    between atoms: _564  and  _565
REMARK  225  A    between atoms: _565  and  _566
REMARK  226  A    between atoms: _566  and  _567
REMARK  227  A    between atoms: _576  and  _578
REMARK  228  A    between atoms: _578  and  _579
REMARK  229  A    between atoms: _578  and  _581
REMARK  230  A    between atoms: _581  and  _582
REMARK  231  A    between atoms: _588  and  _590
REMARK  232  A    between atoms: _590  and  _591
REMARK  233  A    between atoms: _593  and  _595
REMARK  234  A    between atoms: _595  and  _596
REMARK  235  A    between atoms: _595  and  _598
REMARK  236  A    between atoms: _598  and  _599
REMARK  237  A    between atoms: _599  and  _600
REMARK  238  A    between atoms: _600  and  _601
REMARK                            x       y       z     vdW  Elec       q    Type
REMARK                         _______ _______ _______ _____ _____    ______ ____
ROOT
ATOM      1  O   HOH     1      13.831  55.664 -12.274  0.00  0.00    +0.000 OA
ENDROOT
TORSDOF 0
REMARK  Name = ../refined-set-2016/3hu3/3hu3_pocket.pdb
REMARK  238 active torsions:
REMARK  status: ('A' for Active; 'I' for Inactive)
REMARK    1  A    between atoms: _1  and  _3
REMARK    2  A    between atoms: _3  and  _4
REMARK    3  A    between atoms: _3  and  _6
REMARK    4  A    between atoms: _9  and  _11
REMARK    5  A    between atoms: _11  and  _12
REMARK    6  A    between atoms: _11  and  _14
REMARK    7  A    between atoms: _14  and  _15
REMARK    8  A    between atoms: _20  and  _21
REMARK    9  A    between atoms: _23  and  _25
REMARK   10  A    between atoms: _25  and  _26
REMARK   11  A    between atoms: _25  and  _28
REMARK   12  A    between atoms: _28  and  _29
REMARK   13  A    between atoms: _32  and  _34
REMARK   14  A    between atoms: _34  and  _35
REMARK   15  A    between atoms: _34  and  _37
REMARK   16  A    between atoms: _37  and  _38
REMARK   17  A    between atoms: _41  and  _43
REMARK   18  A    between atoms: _43  and  _44
REMARK   19  A    between atoms: _43  and  _46
REMARK   20  A    between atoms: _46  and  _47
REMARK   21  A    between atoms: _50  and  _52
REMARK   22  A    between atoms: _52  and  _53
REMARK   23  A    between atoms: _55  and  _57
REMARK   24  A    between atoms: _57  and  _58
REMARK   25  A    between atoms: _60  and  _62
REMARK   26  A    between atoms: _62  and  _63
REMARK   27  A    between atoms: _62  and  _65
REMARK   28  A    between atoms: _67  and  _69
REMARK   29  A    between atoms: _69  and  _70
REMARK   30  A    between atoms: _69  and  _72
REMARK   31  A    between atoms: _72  and  _73
REMARK   32  A    between atoms: _73  and  _74
REMARK   33  A    between atoms: _74  and  _75
REMARK   34  A    between atoms: _84  and  _86
REMARK   35  A    between atoms: _86  and  _87
REMARK   36  A    between atoms: _86  and  _89
REMARK   37  A    between atoms: _89  and  _90
REMARK   38  A    between atoms: _90  and  _91
REMARK   39  A    between atoms: _96  and  _98
REMARK   40  A    between atoms: _98  and  _99
REMARK   41  A    between atoms: _98  and  _101
REMARK   42  A    between atoms: _101  and  _102
REMARK   43  A    between atoms: _105  and  _107
REMARK   44  A    between atoms: _107  and  _108
REMARK   45  A    between atoms: _107  and  _110
REMARK   46  A    between atoms: _110  and  _111
REMARK   47  A    between atoms: _114  and  _116
REMARK   48  A    between atoms: _116  and  _117
REMARK   49  A    between atoms: _116  and  _119
REMARK   50  A    between atoms: _119  and  _120
REMARK   51  A    between atoms: _125  and  _126
REMARK   52  A    between atoms: _128  and  _130
REMARK   53  A    between atoms: _130  and  _131
REMARK   54  A    between atoms: _134  and  _135
REMARK   55  A    between atoms: _141  and  _142
REMARK   56  A    between atoms: _147  and  _149
REMARK   57  A    between atoms: _149  and  _150
REMARK   58  A    between atoms: _152  and  _154
REMARK   59  A    between atoms: _154  and  _155
REMARK   60  A    between atoms: _154  and  _157
REMARK   61  A    between atoms: _157  and  _158
REMARK   62  A    between atoms: _161  and  _163
REMARK   63  A    between atoms: _163  and  _164
REMARK   64  A    between atoms: _166  and  _168
REMARK   65  A    between atoms: _168  and  _169
REMARK   66  A    between atoms: _168  and  _171
REMARK   67  A    between atoms: _171  and  _172
REMARK   68  A    between atoms: _172  and  _173
REMARK   69  A    between atoms: _173  and  _174
REMARK   70  A    between atoms: _174  and  _175
REMARK   71  A    between atoms: _179  and  _181
REMARK   72  A    between atoms: _181  and  _182
REMARK   73  A    between atoms: _181  and  _184
REMARK   74  A    between atoms: _184  and  _185
REMARK   75  A    between atoms: _188  and  _190
REMARK   76  A    between atoms: _190  and  _191
REMARK   77  A    between atoms: _190  and  _193
REMARK   78  A    between atoms: _193  and  _194
REMARK   79  A    between atoms: _197  and  _199
REMARK   80  A    between atoms: _199  and  _200
REMARK   81  A    between atoms: _199  and  _202
REMARK   82  A    between atoms: _202  and  _203
REMARK   83  A    between atoms: _206  and  _208
REMARK   84  A    between atoms: _208  and  _209
REMARK   85  A    between atoms: _212  and  _214
REMARK   86  A    between atoms: _214  and  _215
REMARK   87  A    between atoms: _214  and  _217
REMARK   88  A    between atoms: _217  and  _218
REMARK   89  A    between atoms: _218  and  _219
REMARK   90  A    between atoms: _219  and  _220
REMARK   91  A    between atoms: _229  and  _231
REMARK   92  A    between atoms: _231  and  _232
REMARK   93  A    between atoms: _235  and  _237
REMARK   94  A    between atoms: _237  and  _238
REMARK   95  A    between atoms: _237  and  _240
REMARK   96  A    between atoms: _240  and  _241
REMARK   97  A    between atoms: _247  and  _249
REMARK   98  A    between atoms: _249  and  _250
REMARK   99  A    between atoms: _249  and  _252
REMARK  100  A    between atoms: _252  and  _253
REMARK  101  A    between atoms: _256  and  _258
REMARK  102  A    between atoms: _258  and  _259
REMARK  103  A    between atoms: _258  and  _261
REMARK  104  A    between atoms: _261  and  _262
REMARK  105  A    between atoms: _262  and  _263
REMARK  106  A    between atoms: _266  and  _268
REMARK  107  A    between atoms: _268  and  _269
REMARK  108  A    between atoms: _268  and  _271
REMARK  109  A    between atoms: _271  and  _272
REMARK  110  A    between atoms: _275  and  _277
REMARK  111  A    between atoms: _277  and  _278
REMARK  112  A    between atoms: _281  and  _283
REMARK  113  A    between atoms: _283  and  _284
REMARK  114  A    between atoms: _283  and  _286
REMARK  115  A    between atoms: _286  and  _287
REMARK  116  A    between atoms: _290  and  _292
REMARK  117  A    between atoms: _292  and  _293
REMARK  118  A    between atoms: _292  and  _295
REMARK  119  A    between atoms: _295  and  _296
REMARK  120  A    between atoms: _301  and  _303
REMARK  121  A    between atoms: _303  and  _304
REMARK  122  A    between atoms: _303  and  _306
REMARK  123  A    between atoms: _306  and  _307
REMARK  124  A    between atoms: _307  and  _308
REMARK  125  A    between atoms: _308  and  _309
REMARK  126  A    between atoms: _318  and  _320
REMARK  127  A    between atoms: _320  and  _321
REMARK  128  A    between atoms: _320  and  _323
REMARK  129  A    between atoms: _323  and  _324
REMARK  130  A    between atoms: _327  and  _329
REMARK  131  A    between atoms: _329  and  _330
REMARK  132  A    between atoms: _333  and  _334
REMARK  133  A    between atoms: _339  and  _341
REMARK  134  A    between atoms: _341  and  _342
REMARK  135  A    between atoms: _344  and  _346
REMARK  136  A    between atoms: _346  and  _347
REMARK  137  A    between atoms: _346  and  _349
REMARK  138  A    between atoms: _349  and  _350
REMARK  139  A    between atoms: _350  and  _351
REMARK  140  A    between atoms: _351  and  _352
REMARK  141  A    between atoms: _361  and  _363
REMARK  142  A    between atoms: _363  and  _364
REMARK  143  A    between atoms: _363  and  _366
REMARK  144  A    between atoms: _366  and  _367
REMARK  145  A    between atoms: _367  and  _368
REMARK  146  A    between atoms: _371  and  _373
REMARK  147  A    between atoms: _373  and  _374
REMARK  148  A    between atoms: _373  and  _376
REMARK  149  A    between atoms: _376  and  _377
REMARK  150  A    between atoms: _380  and  _382
REMARK  151  A    between atoms: _382  and  _383
REMARK  152  A    between atoms: _382  and  _385
REMARK  153  A    between atoms: _385  and  _386
REMARK  154  A    between atoms: _389  and  _391
REMARK  155  A    between atoms: _391  and  _392
REMARK  156  A    between atoms: _391  and  _394
REMARK  157  A    between atoms: _394  and  _395
REMARK  158  A    between atoms: _395  and  _396
REMARK  159  A    between atoms: _401  and  _403
REMARK  160  A    between atoms: _403  and  _404
REMARK  161  A    between atoms: _403  and  _406
REMARK  162  A    between atoms: _406  and  _407
REMARK  163  A    between atoms: _410  and  _412
REMARK  164  A    between atoms: _412  and  _413
REMARK  165  A    between atoms: _412  and  _415
REMARK  166  A    between atoms: _415  and  _416
REMARK  167  A    between atoms: _421  and  _423
REMARK  168  A    between atoms: _423  and  _424
REMARK  169  A    between atoms: _423  and  _426
REMARK  170  A    between atoms: _429  and  _431
REMARK  171  A    between atoms: _431  and  _432
REMARK  172  A    between atoms: _434  and  _436
REMARK  173  A    between atoms: _436  and  _437
REMARK  174  A    between atoms: _440  and  _442
REMARK  175  A    between atoms: _442  and  _443
REMARK  176  A    between atoms: _442  and  _445
REMARK  177  A    between atoms: _445  and  _446
REMARK  178  A    between atoms: _449  and  _451
REMARK  179  A    between atoms: _451  and  _452
REMARK  180  A    between atoms: _451  and  _454
REMARK  181  A    between atoms: _454  and  _455
REMARK  182  A    between atoms: _458  and  _460
REMARK  183  A    between atoms: _460  and  _461
REMARK  184  A    between atoms: _464  and  _466
REMARK  185  A    between atoms: _466  and  _467
REMARK  186  A    between atoms: _470  and  _472
REMARK  187  A    between atoms: _472  and  _473
REMARK  188  A    between atoms: _472  and  _475
REMARK  189  A    between atoms: _475  and  _476
REMARK  190  A    between atoms: _478  and  _480
REMARK  191  A    between atoms: _480  and  _481
REMARK  192  A    between atoms: _480  and  _483
REMARK  193  A    between atoms: _483  and  _484
REMARK  194  A    between atoms: _484  and  _485
REMARK  195  A    between atoms: _485  and  _486
REMARK  196  A    between atoms: _486  and  _487
REMARK  197  A    between atoms: _491  and  _493
REMARK  198  A    between atoms: _493  and  _494
REMARK  199  A    between atoms: _493  and  _496
REMARK  200  A    between atoms: _496  and  _497
REMARK  201  A    between atoms: _497  and  _498
REMARK  202  A    between atoms: _498  and  _499
REMARK  203  A    between atoms: _508  and  _510
REMARK  204  A    between atoms: _510  and  _511
REMARK  205  A    between atoms: _510  and  _513
REMARK  206  A    between atoms: _513  and  _514
REMARK  207  A    between atoms: _517  and  _519
REMARK  208  A    between atoms: _519  and  _520
REMARK  209  A    between atoms: _519  and  _522
REMARK  210  A    between atoms: _522  and  _523
REMARK  211  A    between atoms: _523  and  _524
REMARK  212  A    between atoms: _530  and  _531
REMARK  213  A    between atoms: _536  and  _538
REMARK  214  A    between atoms: _538  and  _539
REMARK  215  A    between atoms: _542  and  _544
REMARK  216  A    between atoms: _544  and  _545
REMARK  217  A    between atoms: _544  and  _547
REMARK  218  A    between atoms: _547  and  _548
REMARK  219  A    between atoms: _548  and  _549
REMARK  220  A    between atoms: _549  and  _550
REMARK  221  A    between atoms: _559  and  _561
REMARK  222  A    between atoms: _561  and  _562
REMARK  223  A    between atoms: _561  and  _564
REMARK  224  A    between atoms: _564  and  _565
REMARK  225  A    between atoms: _565  and  _566
REMARK  226  A    between atoms: _566  and  _567
REMARK  227  A    between atoms: _576  and  _578
REMARK  228  A    between atoms: _578  and  _579
REMARK  229  A    between atoms: _578  and  _581
REMARK  230  A    between atoms: _581  and  _582
REMARK  231  A    between atoms: _588  and  _590
REMARK  232  A    between atoms: _590  and  _591
REMARK  233  A    between atoms: _593  and  _595
REMARK  234  A    between atoms: _595  and  _596
REMARK  235  A    between atoms: _595  and  _598
REMARK  236  A    between atoms: _598  and  _599
REMARK  237  A    between atoms: _599  and  _600
REMARK  238  A    between atoms: _600  and  _601
REMARK                            x       y       z     vdW  Elec       q    Type
REMARK                         _______ _______ _______ _____ _____    ______ ____
ROOT
ATOM      1  O   HOH     1      19.021  37.142  -9.913  0.00  0.00    +0.000 OA
ENDROOT
TORSDOF 0
REMARK  Name = ../refined-set-2016/3hu3/3hu3_pocket.pdb
REMARK  238 active torsions:
REMARK  status: ('A' for Active; 'I' for Inactive)
REMARK    1  A    between atoms: _1  and  _3
REMARK    2  A    between atoms: _3  and  _4
REMARK    3  A    between atoms: _3  and  _6
REMARK    4  A    between atoms: _9  and  _11
REMARK    5  A    between atoms: _11  and  _12
REMARK    6  A    between atoms: _11  and  _14
REMARK    7  A    between atoms: _14  and  _15
REMARK    8  A    between atoms: _20  and  _21
REMARK    9  A    between atoms: _23  and  _25
REMARK   10  A    between atoms: _25  and  _26
REMARK   11  A    between atoms: _25  and  _28
REMARK   12  A    between atoms: _28  and  _29
REMARK   13  A    between atoms: _32  and  _34
REMARK   14  A    between atoms: _34  and  _35
REMARK   15  A    between atoms: _34  and  _37
REMARK   16  A    between atoms: _37  and  _38
REMARK   17  A    between atoms: _41  and  _43
REMARK   18  A    between atoms: _43  and  _44
REMARK   19  A    between atoms: _43  and  _46
REMARK   20  A    between atoms: _46  and  _47
REMARK   21  A    between atoms: _50  and  _52
REMARK   22  A    between atoms: _52  and  _53
REMARK   23  A    between atoms: _55  and  _57
REMARK   24  A    between atoms: _57  and  _58
REMARK   25  A    between atoms: _60  and  _62
REMARK   26  A    between atoms: _62  and  _63
REMARK   27  A    between atoms: _62  and  _65
REMARK   28  A    between atoms: _67  and  _69
REMARK   29  A    between atoms: _69  and  _70
REMARK   30  A    between atoms: _69  and  _72
REMARK   31  A    between atoms: _72  and  _73
REMARK   32  A    between atoms: _73  and  _74
REMARK   33  A    between atoms: _74  and  _75
REMARK   34  A    between atoms: _84  and  _86
REMARK   35  A    between atoms: _86  and  _87
REMARK   36  A    between atoms: _86  and  _89
REMARK   37  A    between atoms: _89  and  _90
REMARK   38  A    between atoms: _90  and  _91
REMARK   39  A    between atoms: _96  and  _98
REMARK   40  A    between atoms: _98  and  _99
REMARK   41  A    between atoms: _98  and  _101
REMARK   42  A    between atoms: _101  and  _102
REMARK   43  A    between atoms: _105  and  _107
REMARK   44  A    between atoms: _107  and  _108
REMARK   45  A    between atoms: _107  and  _110
REMARK   46  A    between atoms: _110  and  _111
REMARK   47  A    between atoms: _114  and  _116
REMARK   48  A    between atoms: _116  and  _117
REMARK   49  A    between atoms: _116  and  _119
REMARK   50  A    between atoms: _119  and  _120
REMARK   51  A    between atoms: _125  and  _126
REMARK   52  A    between atoms: _128  and  _130
REMARK   53  A    between atoms: _130  and  _131
REMARK   54  A    between atoms: _134  and  _135
REMARK   55  A    between atoms: _141  and  _142
REMARK   56  A    between atoms: _147  and  _149
REMARK   57  A    between atoms: _149  and  _150
REMARK   58  A    between atoms: _152  and  _154
REMARK   59  A    between atoms: _154  and  _155
REMARK   60  A    between atoms: _154  and  _157
REMARK   61  A    between atoms: _157  and  _158
REMARK   62  A    between atoms: _161  and  _163
REMARK   63  A    between atoms: _163  and  _164
REMARK   64  A    between atoms: _166  and  _168
REMARK   65  A    between atoms: _168  and  _169
REMARK   66  A    between atoms: _168  and  _171
REMARK   67  A    between atoms: _171  and  _172
REMARK   68  A    between atoms: _172  and  _173
REMARK   69  A    between atoms: _173  and  _174
REMARK   70  A    between atoms: _174  and  _175
REMARK   71  A    between atoms: _179  and  _181
REMARK   72  A    between atoms: _181  and  _182
REMARK   73  A    between atoms: _181  and  _184
REMARK   74  A    between atoms: _184  and  _185
REMARK   75  A    between atoms: _188  and  _190
REMARK   76  A    between atoms: _190  and  _191
REMARK   77  A    between atoms: _190  and  _193
REMARK   78  A    between atoms: _193  and  _194
REMARK   79  A    between atoms: _197  and  _199
REMARK   80  A    between atoms: _199  and  _200
REMARK   81  A    between atoms: _199  and  _202
REMARK   82  A    between atoms: _202  and  _203
REMARK   83  A    between atoms: _206  and  _208
REMARK   84  A    between atoms: _208  and  _209
REMARK   85  A    between atoms: _212  and  _214
REMARK   86  A    between atoms: _214  and  _215
REMARK   87  A    between atoms: _214  and  _217
REMARK   88  A    between atoms: _217  and  _218
REMARK   89  A    between atoms: _218  and  _219
REMARK   90  A    between atoms: _219  and  _220
REMARK   91  A    between atoms: _229  and  _231
REMARK   92  A    between atoms: _231  and  _232
REMARK   93  A    between atoms: _235  and  _237
REMARK   94  A    between atoms: _237  and  _238
REMARK   95  A    between atoms: _237  and  _240
REMARK   96  A    between atoms: _240  and  _241
REMARK   97  A    between atoms: _247  and  _249
REMARK   98  A    between atoms: _249  and  _250
REMARK   99  A    between atoms: _249  and  _252
REMARK  100  A    between atoms: _252  and  _253
REMARK  101  A    between atoms: _256  and  _258
REMARK  102  A    between atoms: _258  and  _259
REMARK  103  A    between atoms: _258  and  _261
REMARK  104  A    between atoms: _261  and  _262
REMARK  105  A    between atoms: _262  and  _263
REMARK  106  A    between atoms: _266  and  _268
REMARK  107  A    between atoms: _268  and  _269
REMARK  108  A    between atoms: _268  and  _271
REMARK  109  A    between atoms: _271  and  _272
REMARK  110  A    between atoms: _275  and  _277
REMARK  111  A    between atoms: _277  and  _278
REMARK  112  A    between atoms: _281  and  _283
REMARK  113  A    between atoms: _283  and  _284
REMARK  114  A    between atoms: _283  and  _286
REMARK  115  A    between atoms: _286  and  _287
REMARK  116  A    between atoms: _290  and  _292
REMARK  117  A    between atoms: _292  and  _293
REMARK  118  A    between atoms: _292  and  _295
REMARK  119  A    between atoms: _295  and  _296
REMARK  120  A    between atoms: _301  and  _303
REMARK  121  A    between atoms: _303  and  _304
REMARK  122  A    between atoms: _303  and  _306
REMARK  123  A    between atoms: _306  and  _307
REMARK  124  A    between atoms: _307  and  _308
REMARK  125  A    between atoms: _308  and  _309
REMARK  126  A    between atoms: _318  and  _320
REMARK  127  A    between atoms: _320  and  _321
REMARK  128  A    between atoms: _320  and  _323
REMARK  129  A    between atoms: _323  and  _324
REMARK  130  A    between atoms: _327  and  _329
REMARK  131  A    between atoms: _329  and  _330
REMARK  132  A    between atoms: _333  and  _334
REMARK  133  A    between atoms: _339  and  _341
REMARK  134  A    between atoms: _341  and  _342
REMARK  135  A    between atoms: _344  and  _346
REMARK  136  A    between atoms: _346  and  _347
REMARK  137  A    between atoms: _346  and  _349
REMARK  138  A    between atoms: _349  and  _350
REMARK  139  A    between atoms: _350  and  _351
REMARK  140  A    between atoms: _351  and  _352
REMARK  141  A    between atoms: _361  and  _363
REMARK  142  A    between atoms: _363  and  _364
REMARK  143  A    between atoms: _363  and  _366
REMARK  144  A    between atoms: _366  and  _367
REMARK  145  A    between atoms: _367  and  _368
REMARK  146  A    between atoms: _371  and  _373
REMARK  147  A    between atoms: _373  and  _374
REMARK  148  A    between atoms: _373  and  _376
REMARK  149  A    between atoms: _376  and  _377
REMARK  150  A    between atoms: _380  and  _382
REMARK  151  A    between atoms: _382  and  _383
REMARK  152  A    between atoms: _382  and  _385
REMARK  153  A    between atoms: _385  and  _386
REMARK  154  A    between atoms: _389  and  _391
REMARK  155  A    between atoms: _391  and  _392
REMARK  156  A    between atoms: _391  and  _394
REMARK  157  A    between atoms: _394  and  _395
REMARK  158  A    between atoms: _395  and  _396
REMARK  159  A    between atoms: _401  and  _403
REMARK  160  A    between atoms: _403  and  _404
REMARK  161  A    between atoms: _403  and  _406
REMARK  162  A    between atoms: _406  and  _407
REMARK  163  A    between atoms: _410  and  _412
REMARK  164  A    between atoms: _412  and  _413
REMARK  165  A    between atoms: _412  and  _415
REMARK  166  A    between atoms: _415  and  _416
REMARK  167  A    between atoms: _421  and  _423
REMARK  168  A    between atoms: _423  and  _424
REMARK  169  A    between atoms: _423  and  _426
REMARK  170  A    between atoms: _429  and  _431
REMARK  171  A    between atoms: _431  and  _432
REMARK  172  A    between atoms: _434  and  _436
REMARK  173  A    between atoms: _436  and  _437
REMARK  174  A    between atoms: _440  and  _442
REMARK  175  A    between atoms: _442  and  _443
REMARK  176  A    between atoms: _442  and  _445
REMARK  177  A    between atoms: _445  and  _446
REMARK  178  A    between atoms: _449  and  _451
REMARK  179  A    between atoms: _451  and  _452
REMARK  180  A    between atoms: _451  and  _454
REMARK  181  A    between atoms: _454  and  _455
REMARK  182  A    between atoms: _458  and  _460
REMARK  183  A    between atoms: _460  and  _461
REMARK  184  A    between atoms: _464  and  _466
REMARK  185  A    between atoms: _466  and  _467
REMARK  186  A    between atoms: _470  and  _472
REMARK  187  A    between atoms: _472  and  _473
REMARK  188  A    between atoms: _472  and  _475
REMARK  189  A    between atoms: _475  and  _476
REMARK  190  A    between atoms: _478  and  _480
REMARK  191  A    between atoms: _480  and  _481
REMARK  192  A    between atoms: _480  and  _483
REMARK  193  A    between atoms: _483  and  _484
REMARK  194  A    between atoms: _484  and  _485
REMARK  195  A    between atoms: _485  and  _486
REMARK  196  A    between atoms: _486  and  _487
REMARK  197  A    between atoms: _491  and  _493
REMARK  198  A    between atoms: _493  and  _494
REMARK  199  A    between atoms: _493  and  _496
REMARK  200  A    between atoms: _496  and  _497
REMARK  201  A    between atoms: _497  and  _498
REMARK  202  A    between atoms: _498  and  _499
REMARK  203  A    between atoms: _508  and  _510
REMARK  204  A    between atoms: _510  and  _511
REMARK  205  A    between atoms: _510  and  _513
REMARK  206  A    between atoms: _513  and  _514
REMARK  207  A    between atoms: _517  and  _519
REMARK  208  A    between atoms: _519  and  _520
REMARK  209  A    between atoms: _519  and  _522
REMARK  210  A    between atoms: _522  and  _523
REMARK  211  A    between atoms: _523  and  _524
REMARK  212  A    between atoms: _530  and  _531
REMARK  213  A    between atoms: _536  and  _538
REMARK  214  A    between atoms: _538  and  _539
REMARK  215  A    between atoms: _542  and  _544
REMARK  216  A    between atoms: _544  and  _545
REMARK  217  A    between atoms: _544  and  _547
REMARK  218  A    between atoms: _547  and  _548
REMARK  219  A    between atoms: _548  and  _549
REMARK  220  A    between atoms: _549  and  _550
REMARK  221  A    between atoms: _559  and  _561
REMARK  222  A    between atoms: _561  and  _562
REMARK  223  A    between atoms: _561  and  _564
REMARK  224  A    between atoms: _564  and  _565
REMARK  225  A    between atoms: _565  and  _566
REMARK  226  A    between atoms: _566  and  _567
REMARK  227  A    between atoms: _576  and  _578
REMARK  228  A    between atoms: _578  and  _579
REMARK  229  A    between atoms: _578  and  _581
REMARK  230  A    between atoms: _581  and  _582
REMARK  231  A    between atoms: _588  and  _590
REMARK  232  A    between atoms: _590  and  _591
REMARK  233  A    between atoms: _593  and  _595
REMARK  234  A    between atoms: _595  and  _596
REMARK  235  A    between atoms: _595  and  _598
REMARK  236  A    between atoms: _598  and  _599
REMARK  237  A    between atoms: _599  and  _600
REMARK  238  A    between atoms: _600  and  _601
REMARK                            x       y       z     vdW  Elec       q    Type
REMARK                         _______ _______ _______ _____ _____    ______ ____
ROOT
ATOM      1  O   HOH     1      24.616  46.242 -16.411  0.00  0.00    +0.000 OA
ENDROOT
TORSDOF 0
REMARK  Name = ../refined-set-2016/3hu3/3hu3_pocket.pdb
REMARK  238 active torsions:
REMARK  status: ('A' for Active; 'I' for Inactive)
REMARK    1  A    between atoms: _1  and  _3
REMARK    2  A    between atoms: _3  and  _4
REMARK    3  A    between atoms: _3  and  _6
REMARK    4  A    between atoms: _9  and  _11
REMARK    5  A    between atoms: _11  and  _12
REMARK    6  A    between atoms: _11  and  _14
REMARK    7  A    between atoms: _14  and  _15
REMARK    8  A    between atoms: _20  and  _21
REMARK    9  A    between atoms: _23  and  _25
REMARK   10  A    between atoms: _25  and  _26
REMARK   11  A    between atoms: _25  and  _28
REMARK   12  A    between atoms: _28  and  _29
REMARK   13  A    between atoms: _32  and  _34
REMARK   14  A    between atoms: _34  and  _35
REMARK   15  A    between atoms: _34  and  _37
REMARK   16  A    between atoms: _37  and  _38
REMARK   17  A    between atoms: _41  and  _43
REMARK   18  A    between atoms: _43  and  _44
REMARK   19  A    between atoms: _43  and  _46
REMARK   20  A    between atoms: _46  and  _47
REMARK   21  A    between atoms: _50  and  _52
REMARK   22  A    between atoms: _52  and  _53
REMARK   23  A    between atoms: _55  and  _57
REMARK   24  A    between atoms: _57  and  _58
REMARK   25  A    between atoms: _60  and  _62
REMARK   26  A    between atoms: _62  and  _63
REMARK   27  A    between atoms: _62  and  _65
REMARK   28  A    between atoms: _67  and  _69
REMARK   29  A    between atoms: _69  and  _70
REMARK   30  A    between atoms: _69  and  _72
REMARK   31  A    between atoms: _72  and  _73
REMARK   32  A    between atoms: _73  and  _74
REMARK   33  A    between atoms: _74  and  _75
REMARK   34  A    between atoms: _84  and  _86
REMARK   35  A    between atoms: _86  and  _87
REMARK   36  A    between atoms: _86  and  _89
REMARK   37  A    between atoms: _89  and  _90
REMARK   38  A    between atoms: _90  and  _91
REMARK   39  A    between atoms: _96  and  _98
REMARK   40  A    between atoms: _98  and  _99
REMARK   41  A    between atoms: _98  and  _101
REMARK   42  A    between atoms: _101  and  _102
REMARK   43  A    between atoms: _105  and  _107
REMARK   44  A    between atoms: _107  and  _108
REMARK   45  A    between atoms: _107  and  _110
REMARK   46  A    between atoms: _110  and  _111
REMARK   47  A    between atoms: _114  and  _116
REMARK   48  A    between atoms: _116  and  _117
REMARK   49  A    between atoms: _116  and  _119
REMARK   50  A    between atoms: _119  and  _120
REMARK   51  A    between atoms: _125  and  _126
REMARK   52  A    between atoms: _128  and  _130
REMARK   53  A    between atoms: _130  and  _131
REMARK   54  A    between atoms: _134  and  _135
REMARK   55  A    between atoms: _141  and  _142
REMARK   56  A    between atoms: _147  and  _149
REMARK   57  A    between atoms: _149  and  _150
REMARK   58  A    between atoms: _152  and  _154
REMARK   59  A    between atoms: _154  and  _155
REMARK   60  A    between atoms: _154  and  _157
REMARK   61  A    between atoms: _157  and  _158
REMARK   62  A    between atoms: _161  and  _163
REMARK   63  A    between atoms: _163  and  _164
REMARK   64  A    between atoms: _166  and  _168
REMARK   65  A    between atoms: _168  and  _169
REMARK   66  A    between atoms: _168  and  _171
REMARK   67  A    between atoms: _171  and  _172
REMARK   68  A    between atoms: _172  and  _173
REMARK   69  A    between atoms: _173  and  _174
REMARK   70  A    between atoms: _174  and  _175
REMARK   71  A    between atoms: _179  and  _181
REMARK   72  A    between atoms: _181  and  _182
REMARK   73  A    between atoms: _181  and  _184
REMARK   74  A    between atoms: _184  and  _185
REMARK   75  A    between atoms: _188  and  _190
REMARK   76  A    between atoms: _190  and  _191
REMARK   77  A    between atoms: _190  and  _193
REMARK   78  A    between atoms: _193  and  _194
REMARK   79  A    between atoms: _197  and  _199
REMARK   80  A    between atoms: _199  and  _200
REMARK   81  A    between atoms: _199  and  _202
REMARK   82  A    between atoms: _202  and  _203
REMARK   83  A    between atoms: _206  and  _208
REMARK   84  A    between atoms: _208  and  _209
REMARK   85  A    between atoms: _212  and  _214
REMARK   86  A    between atoms: _214  and  _215
REMARK   87  A    between atoms: _214  and  _217
REMARK   88  A    between atoms: _217  and  _218
REMARK   89  A    between atoms: _218  and  _219
REMARK   90  A    between atoms: _219  and  _220
REMARK   91  A    between atoms: _229  and  _231
REMARK   92  A    between atoms: _231  and  _232
REMARK   93  A    between atoms: _235  and  _237
REMARK   94  A    between atoms: _237  and  _238
REMARK   95  A    between atoms: _237  and  _240
REMARK   96  A    between atoms: _240  and  _241
REMARK   97  A    between atoms: _247  and  _249
REMARK   98  A    between atoms: _249  and  _250
REMARK   99  A    between atoms: _249  and  _252
REMARK  100  A    between atoms: _252  and  _253
REMARK  101  A    between atoms: _256  and  _258
REMARK  102  A    between atoms: _258  and  _259
REMARK  103  A    between atoms: _258  and  _261
REMARK  104  A    between atoms: _261  and  _262
REMARK  105  A    between atoms: _262  and  _263
REMARK  106  A    between atoms: _266  and  _268
REMARK  107  A    between atoms: _268  and  _269
REMARK  108  A    between atoms: _268  and  _271
REMARK  109  A    between atoms: _271  and  _272
REMARK  110  A    between atoms: _275  and  _277
REMARK  111  A    between atoms: _277  and  _278
REMARK  112  A    between atoms: _281  and  _283
REMARK  113  A    between atoms: _283  and  _284
REMARK  114  A    between atoms: _283  and  _286
REMARK  115  A    between atoms: _286  and  _287
REMARK  116  A    between atoms: _290  and  _292
REMARK  117  A    between atoms: _292  and  _293
REMARK  118  A    between atoms: _292  and  _295
REMARK  119  A    between atoms: _295  and  _296
REMARK  120  A    between atoms: _301  and  _303
REMARK  121  A    between atoms: _303  and  _304
REMARK  122  A    between atoms: _303  and  _306
REMARK  123  A    between atoms: _306  and  _307
REMARK  124  A    between atoms: _307  and  _308
REMARK  125  A    between atoms: _308  and  _309
REMARK  126  A    between atoms: _318  and  _320
REMARK  127  A    between atoms: _320  and  _321
REMARK  128  A    between atoms: _320  and  _323
REMARK  129  A    between atoms: _323  and  _324
REMARK  130  A    between atoms: _327  and  _329
REMARK  131  A    between atoms: _329  and  _330
REMARK  132  A    between atoms: _333  and  _334
REMARK  133  A    between atoms: _339  and  _341
REMARK  134  A    between atoms: _341  and  _342
REMARK  135  A    between atoms: _344  and  _346
REMARK  136  A    between atoms: _346  and  _347
REMARK  137  A    between atoms: _346  and  _349
REMARK  138  A    between atoms: _349  and  _350
REMARK  139  A    between atoms: _350  and  _351
REMARK  140  A    between atoms: _351  and  _352
REMARK  141  A    between atoms: _361  and  _363
REMARK  142  A    between atoms: _363  and  _364
REMARK  143  A    between atoms: _363  and  _366
REMARK  144  A    between atoms: _366  and  _367
REMARK  145  A    between atoms: _367  and  _368
REMARK  146  A    between atoms: _371  and  _373
REMARK  147  A    between atoms: _373  and  _374
REMARK  148  A    between atoms: _373  and  _376
REMARK  149  A    between atoms: _376  and  _377
REMARK  150  A    between atoms: _380  and  _382
REMARK  151  A    between atoms: _382  and  _383
REMARK  152  A    between atoms: _382  and  _385
REMARK  153  A    between atoms: _385  and  _386
REMARK  154  A    between atoms: _389  and  _391
REMARK  155  A    between atoms: _391  and  _392
REMARK  156  A    between atoms: _391  and  _394
REMARK  157  A    between atoms: _394  and  _395
REMARK  158  A    between atoms: _395  and  _396
REMARK  159  A    between atoms: _401  and  _403
REMARK  160  A    between atoms: _403  and  _404
REMARK  161  A    between atoms: _403  and  _406
REMARK  162  A    between atoms: _406  and  _407
REMARK  163  A    between atoms: _410  and  _412
REMARK  164  A    between atoms: _412  and  _413
REMARK  165  A    between atoms: _412  and  _415
REMARK  166  A    between atoms: _415  and  _416
REMARK  167  A    between atoms: _421  and  _423
REMARK  168  A    between atoms: _423  and  _424
REMARK  169  A    between atoms: _423  and  _426
REMARK  170  A    between atoms: _429  and  _431
REMARK  171  A    between atoms: _431  and  _432
REMARK  172  A    between atoms: _434  and  _436
REMARK  173  A    between atoms: _436  and  _437
REMARK  174  A    between atoms: _440  and  _442
REMARK  175  A    between atoms: _442  and  _443
REMARK  176  A    between atoms: _442  and  _445
REMARK  177  A    between atoms: _445  and  _446
REMARK  178  A    between atoms: _449  and  _451
REMARK  179  A    between atoms: _451  and  _452
REMARK  180  A    between atoms: _451  and  _454
REMARK  181  A    between atoms: _454  and  _455
REMARK  182  A    between atoms: _458  and  _460
REMARK  183  A    between atoms: _460  and  _461
REMARK  184  A    between atoms: _464  and  _466
REMARK  185  A    between atoms: _466  and  _467
REMARK  186  A    between atoms: _470  and  _472
REMARK  187  A    between atoms: _472  and  _473
REMARK  188  A    between atoms: _472  and  _475
REMARK  189  A    between atoms: _475  and  _476
REMARK  190  A    between atoms: _478  and  _480
REMARK  191  A    between atoms: _480  and  _481
REMARK  192  A    between atoms: _480  and  _483
REMARK  193  A    between atoms: _483  and  _484
REMARK  194  A    between atoms: _484  and  _485
REMARK  195  A    between atoms: _485  and  _486
REMARK  196  A    between atoms: _486  and  _487
REMARK  197  A    between atoms: _491  and  _493
REMARK  198  A    between atoms: _493  and  _494
REMARK  199  A    between atoms: _493  and  _496
REMARK  200  A    between atoms: _496  and  _497
REMARK  201  A    between atoms: _497  and  _498
REMARK  202  A    between atoms: _498  and  _499
REMARK  203  A    between atoms: _508  and  _510
REMARK  204  A    between atoms: _510  and  _511
REMARK  205  A    between atoms: _510  and  _513
REMARK  206  A    between atoms: _513  and  _514
REMARK  207  A    between atoms: _517  and  _519
REMARK  208  A    between atoms: _519  and  _520
REMARK  209  A    between atoms: _519  and  _522
REMARK  210  A    between atoms: _522  and  _523
REMARK  211  A    between atoms: _523  and  _524
REMARK  212  A    between atoms: _530  and  _531
REMARK  213  A    between atoms: _536  and  _538
REMARK  214  A    between atoms: _538  and  _539
REMARK  215  A    between atoms: _542  and  _544
REMARK  216  A    between atoms: _544  and  _545
REMARK  217  A    between atoms: _544  and  _547
REMARK  218  A    between atoms: _547  and  _548
REMARK  219  A    between atoms: _548  and  _549
REMARK  220  A    between atoms: _549  and  _550
REMARK  221  A    between atoms: _559  and  _561
REMARK  222  A    between atoms: _561  and  _562
REMARK  223  A    between atoms: _561  and  _564
REMARK  224  A    between atoms: _564  and  _565
REMARK  225  A    between atoms: _565  and  _566
REMARK  226  A    between atoms: _566  and  _567
REMARK  227  A    between atoms: _576  and  _578
REMARK  228  A    between atoms: _578  and  _579
REMARK  229  A    between atoms: _578  and  _581
REMARK  230  A    between atoms: _581  and  _582
REMARK  231  A    between atoms: _588  and  _590
REMARK  232  A    between atoms: _590  and  _591
REMARK  233  A    between atoms: _593  and  _595
REMARK  234  A    between atoms: _595  and  _596
REMARK  235  A    between atoms: _595  and  _598
REMARK  236  A    between atoms: _598  and  _599
REMARK  237  A    between atoms: _599  and  _600
REMARK  238  A    between atoms: _600  and  _601
REMARK                            x       y       z     vdW  Elec       q    Type
REMARK                         _______ _______ _______ _____ _____    ______ ____
ROOT
ATOM      1  O   HOH     1      15.750  47.648 -17.388  0.00  0.00    +0.000 OA
ENDROOT
TORSDOF 0
REMARK  Name = ../refined-set-2016/3hu3/3hu3_pocket.pdb
REMARK  238 active torsions:
REMARK  status: ('A' for Active; 'I' for Inactive)
REMARK    1  A    between atoms: _1  and  _3
REMARK    2  A    between atoms: _3  and  _4
REMARK    3  A    between atoms: _3  and  _6
REMARK    4  A    between atoms: _9  and  _11
REMARK    5  A    between atoms: _11  and  _12
REMARK    6  A    between atoms: _11  and  _14
REMARK    7  A    between atoms: _14  and  _15
REMARK    8  A    between atoms: _20  and  _21
REMARK    9  A    between atoms: _23  and  _25
REMARK   10  A    between atoms: _25  and  _26
REMARK   11  A    between atoms: _25  and  _28
REMARK   12  A    between atoms: _28  and  _29
REMARK   13  A    between atoms: _32  and  _34
REMARK   14  A    between atoms: _34  and  _35
REMARK   15  A    between atoms: _34  and  _37
REMARK   16  A    between atoms: _37  and  _38
REMARK   17  A    between atoms: _41  and  _43
REMARK   18  A    between atoms: _43  and  _44
REMARK   19  A    between atoms: _43  and  _46
REMARK   20  A    between atoms: _46  and  _47
REMARK   21  A    between atoms: _50  and  _52
REMARK   22  A    between atoms: _52  and  _53
REMARK   23  A    between atoms: _55  and  _57
REMARK   24  A    between atoms: _57  and  _58
REMARK   25  A    between atoms: _60  and  _62
REMARK   26  A    between atoms: _62  and  _63
REMARK   27  A    between atoms: _62  and  _65
REMARK   28  A    between atoms: _67  and  _69
REMARK   29  A    between atoms: _69  and  _70
REMARK   30  A    between atoms: _69  and  _72
REMARK   31  A    between atoms: _72  and  _73
REMARK   32  A    between atoms: _73  and  _74
REMARK   33  A    between atoms: _74  and  _75
REMARK   34  A    between atoms: _84  and  _86
REMARK   35  A    between atoms: _86  and  _87
REMARK   36  A    between atoms: _86  and  _89
REMARK   37  A    between atoms: _89  and  _90
REMARK   38  A    between atoms: _90  and  _91
REMARK   39  A    between atoms: _96  and  _98
REMARK   40  A    between atoms: _98  and  _99
REMARK   41  A    between atoms: _98  and  _101
REMARK   42  A    between atoms: _101  and  _102
REMARK   43  A    between atoms: _105  and  _107
REMARK   44  A    between atoms: _107  and  _108
REMARK   45  A    between atoms: _107  and  _110
REMARK   46  A    between atoms: _110  and  _111
REMARK   47  A    between atoms: _114  and  _116
REMARK   48  A    between atoms: _116  and  _117
REMARK   49  A    between atoms: _116  and  _119
REMARK   50  A    between atoms: _119  and  _120
REMARK   51  A    between atoms: _125  and  _126
REMARK   52  A    between atoms: _128  and  _130
REMARK   53  A    between atoms: _130  and  _131
REMARK   54  A    between atoms: _134  and  _135
REMARK   55  A    between atoms: _141  and  _142
REMARK   56  A    between atoms: _147  and  _149
REMARK   57  A    between atoms: _149  and  _150
REMARK   58  A    between atoms: _152  and  _154
REMARK   59  A    between atoms: _154  and  _155
REMARK   60  A    between atoms: _154  and  _157
REMARK   61  A    between atoms: _157  and  _158
REMARK   62  A    between atoms: _161  and  _163
REMARK   63  A    between atoms: _163  and  _164
REMARK   64  A    between atoms: _166  and  _168
REMARK   65  A    between atoms: _168  and  _169
REMARK   66  A    between atoms: _168  and  _171
REMARK   67  A    between atoms: _171  and  _172
REMARK   68  A    between atoms: _172  and  _173
REMARK   69  A    between atoms: _173  and  _174
REMARK   70  A    between atoms: _174  and  _175
REMARK   71  A    between atoms: _179  and  _181
REMARK   72  A    between atoms: _181  and  _182
REMARK   73  A    between atoms: _181  and  _184
REMARK   74  A    between atoms: _184  and  _185
REMARK   75  A    between atoms: _188  and  _190
REMARK   76  A    between atoms: _190  and  _191
REMARK   77  A    between atoms: _190  and  _193
REMARK   78  A    between atoms: _193  and  _194
REMARK   79  A    between atoms: _197  and  _199
REMARK   80  A    between atoms: _199  and  _200
REMARK   81  A    between atoms: _199  and  _202
REMARK   82  A    between atoms: _202  and  _203
REMARK   83  A    between atoms: _206  and  _208
REMARK   84  A    between atoms: _208  and  _209
REMARK   85  A    between atoms: _212  and  _214
REMARK   86  A    between atoms: _214  and  _215
REMARK   87  A    between atoms: _214  and  _217
REMARK   88  A    between atoms: _217  and  _218
REMARK   89  A    between atoms: _218  and  _219
REMARK   90  A    between atoms: _219  and  _220
REMARK   91  A    between atoms: _229  and  _231
REMARK   92  A    between atoms: _231  and  _232
REMARK   93  A    between atoms: _235  and  _237
REMARK   94  A    between atoms: _237  and  _238
REMARK   95  A    between atoms: _237  and  _240
REMARK   96  A    between atoms: _240  and  _241
REMARK   97  A    between atoms: _247  and  _249
REMARK   98  A    between atoms: _249  and  _250
REMARK   99  A    between atoms: _249  and  _252
REMARK  100  A    between atoms: _252  and  _253
REMARK  101  A    between atoms: _256  and  _258
REMARK  102  A    between atoms: _258  and  _259
REMARK  103  A    between atoms: _258  and  _261
REMARK  104  A    between atoms: _261  and  _262
REMARK  105  A    between atoms: _262  and  _263
REMARK  106  A    between atoms: _266  and  _268
REMARK  107  A    between atoms: _268  and  _269
REMARK  108  A    between atoms: _268  and  _271
REMARK  109  A    between atoms: _271  and  _272
REMARK  110  A    between atoms: _275  and  _277
REMARK  111  A    between atoms: _277  and  _278
REMARK  112  A    between atoms: _281  and  _283
REMARK  113  A    between atoms: _283  and  _284
REMARK  114  A    between atoms: _283  and  _286
REMARK  115  A    between atoms: _286  and  _287
REMARK  116  A    between atoms: _290  and  _292
REMARK  117  A    between atoms: _292  and  _293
REMARK  118  A    between atoms: _292  and  _295
REMARK  119  A    between atoms: _295  and  _296
REMARK  120  A    between atoms: _301  and  _303
REMARK  121  A    between atoms: _303  and  _304
REMARK  122  A    between atoms: _303  and  _306
REMARK  123  A    between atoms: _306  and  _307
REMARK  124  A    between atoms: _307  and  _308
REMARK  125  A    between atoms: _308  and  _309
REMARK  126  A    between atoms: _318  and  _320
REMARK  127  A    between atoms: _320  and  _321
REMARK  128  A    between atoms: _320  and  _323
REMARK  129  A    between atoms: _323  and  _324
REMARK  130  A    between atoms: _327  and  _329
REMARK  131  A    between atoms: _329  and  _330
REMARK  132  A    between atoms: _333  and  _334
REMARK  133  A    between atoms: _339  and  _341
REMARK  134  A    between atoms: _341  and  _342
REMARK  135  A    between atoms: _344  and  _346
REMARK  136  A    between atoms: _346  and  _347
REMARK  137  A    between atoms: _346  and  _349
REMARK  138  A    between atoms: _349  and  _350
REMARK  139  A    between atoms: _350  and  _351
REMARK  140  A    between atoms: _351  and  _352
REMARK  141  A    between atoms: _361  and  _363
REMARK  142  A    between atoms: _363  and  _364
REMARK  143  A    between atoms: _363  and  _366
REMARK  144  A    between atoms: _366  and  _367
REMARK  145  A    between atoms: _367  and  _368
REMARK  146  A    between atoms: _371  and  _373
REMARK  147  A    between atoms: _373  and  _374
REMARK  148  A    between atoms: _373  and  _376
REMARK  149  A    between atoms: _376  and  _377
REMARK  150  A    between atoms: _380  and  _382
REMARK  151  A    between atoms: _382  and  _383
REMARK  152  A    between atoms: _382  and  _385
REMARK  153  A    between atoms: _385  and  _386
REMARK  154  A    between atoms: _389  and  _391
REMARK  155  A    between atoms: _391  and  _392
REMARK  156  A    between atoms: _391  and  _394
REMARK  157  A    between atoms: _394  and  _395
REMARK  158  A    between atoms: _395  and  _396
REMARK  159  A    between atoms: _401  and  _403
REMARK  160  A    between atoms: _403  and  _404
REMARK  161  A    between atoms: _403  and  _406
REMARK  162  A    between atoms: _406  and  _407
REMARK  163  A    between atoms: _410  and  _412
REMARK  164  A    between atoms: _412  and  _413
REMARK  165  A    between atoms: _412  and  _415
REMARK  166  A    between atoms: _415  and  _416
REMARK  167  A    between atoms: _421  and  _423
REMARK  168  A    between atoms: _423  and  _424
REMARK  169  A    between atoms: _423  and  _426
REMARK  170  A    between atoms: _429  and  _431
REMARK  171  A    between atoms: _431  and  _432
REMARK  172  A    between atoms: _434  and  _436
REMARK  173  A    between atoms: _436  and  _437
REMARK  174  A    between atoms: _440  and  _442
REMARK  175  A    between atoms: _442  and  _443
REMARK  176  A    between atoms: _442  and  _445
REMARK  177  A    between atoms: _445  and  _446
REMARK  178  A    between atoms: _449  and  _451
REMARK  179  A    between atoms: _451  and  _452
REMARK  180  A    between atoms: _451  and  _454
REMARK  181  A    between atoms: _454  and  _455
REMARK  182  A    between atoms: _458  and  _460
REMARK  183  A    between atoms: _460  and  _461
REMARK  184  A    between atoms: _464  and  _466
REMARK  185  A    between atoms: _466  and  _467
REMARK  186  A    between atoms: _470  and  _472
REMARK  187  A    between atoms: _472  and  _473
REMARK  188  A    between atoms: _472  and  _475
REMARK  189  A    between atoms: _475  and  _476
REMARK  190  A    between atoms: _478  and  _480
REMARK  191  A    between atoms: _480  and  _481
REMARK  192  A    between atoms: _480  and  _483
REMARK  193  A    between atoms: _483  and  _484
REMARK  194  A    between atoms: _484  and  _485
REMARK  195  A    between atoms: _485  and  _486
REMARK  196  A    between atoms: _486  and  _487
REMARK  197  A    between atoms: _491  and  _493
REMARK  198  A    between atoms: _493  and  _494
REMARK  199  A    between atoms: _493  and  _496
REMARK  200  A    between atoms: _496  and  _497
REMARK  201  A    between atoms: _497  and  _498
REMARK  202  A    between atoms: _498  and  _499
REMARK  203  A    between atoms: _508  and  _510
REMARK  204  A    between atoms: _510  and  _511
REMARK  205  A    between atoms: _510  and  _513
REMARK  206  A    between atoms: _513  and  _514
REMARK  207  A    between atoms: _517  and  _519
REMARK  208  A    between atoms: _519  and  _520
REMARK  209  A    between atoms: _519  and  _522
REMARK  210  A    between atoms: _522  and  _523
REMARK  211  A    between atoms: _523  and  _524
REMARK  212  A    between atoms: _530  and  _531
REMARK  213  A    between atoms: _536  and  _538
REMARK  214  A    between atoms: _538  and  _539
REMARK  215  A    between atoms: _542  and  _544
REMARK  216  A    between atoms: _544  and  _545
REMARK  217  A    between atoms: _544  and  _547
REMARK  218  A    between atoms: _547  and  _548
REMARK  219  A    between atoms: _548  and  _549
REMARK  220  A    between atoms: _549  and  _550
REMARK  221  A    between atoms: _559  and  _561
REMARK  222  A    between atoms: _561  and  _562
REMARK  223  A    between atoms: _561  and  _564
REMARK  224  A    between atoms: _564  and  _565
REMARK  225  A    between atoms: _565  and  _566
REMARK  226  A    between atoms: _566  and  _567
REMARK  227  A    between atoms: _576  and  _578
REMARK  228  A    between atoms: _578  and  _579
REMARK  229  A    between atoms: _578  and  _581
REMARK  230  A    between atoms: _581  and  _582
REMARK  231  A    between atoms: _588  and  _590
REMARK  232  A    between atoms: _590  and  _591
REMARK  233  A    between atoms: _593  and  _595
REMARK  234  A    between atoms: _595  and  _596
REMARK  235  A    between atoms: _595  and  _598
REMARK  236  A    between atoms: _598  and  _599
REMARK  237  A    between atoms: _599  and  _600
REMARK  238  A    between atoms: _600  and  _601
REMARK                            x       y       z     vdW  Elec       q    Type
REMARK                         _______ _______ _______ _____ _____    ______ ____
ROOT
ATOM      1  O   HOH     1      16.546  35.974  -8.619  0.00  0.00    +0.000 OA
ENDROOT
TORSDOF 0
REMARK  Name = ../refined-set-2016/3hu3/3hu3_pocket.pdb
REMARK  238 active torsions:
REMARK  status: ('A' for Active; 'I' for Inactive)
REMARK    1  A    between atoms: _1  and  _3
REMARK    2  A    between atoms: _3  and  _4
REMARK    3  A    between atoms: _3  and  _6
REMARK    4  A    between atoms: _9  and  _11
REMARK    5  A    between atoms: _11  and  _12
REMARK    6  A    between atoms: _11  and  _14
REMARK    7  A    between atoms: _14  and  _15
REMARK    8  A    between atoms: _20  and  _21
REMARK    9  A    between atoms: _23  and  _25
REMARK   10  A    between atoms: _25  and  _26
REMARK   11  A    between atoms: _25  and  _28
REMARK   12  A    between atoms: _28  and  _29
REMARK   13  A    between atoms: _32  and  _34
REMARK   14  A    between atoms: _34  and  _35
REMARK   15  A    between atoms: _34  and  _37
REMARK   16  A    between atoms: _37  and  _38
REMARK   17  A    between atoms: _41  and  _43
REMARK   18  A    between atoms: _43  and  _44
REMARK   19  A    between atoms: _43  and  _46
REMARK   20  A    between atoms: _46  and  _47
REMARK   21  A    between atoms: _50  and  _52
REMARK   22  A    between atoms: _52  and  _53
REMARK   23  A    between atoms: _55  and  _57
REMARK   24  A    between atoms: _57  and  _58
REMARK   25  A    between atoms: _60  and  _62
REMARK   26  A    between atoms: _62  and  _63
REMARK   27  A    between atoms: _62  and  _65
REMARK   28  A    between atoms: _67  and  _69
REMARK   29  A    between atoms: _69  and  _70
REMARK   30  A    between atoms: _69  and  _72
REMARK   31  A    between atoms: _72  and  _73
REMARK   32  A    between atoms: _73  and  _74
REMARK   33  A    between atoms: _74  and  _75
REMARK   34  A    between atoms: _84  and  _86
REMARK   35  A    between atoms: _86  and  _87
REMARK   36  A    between atoms: _86  and  _89
REMARK   37  A    between atoms: _89  and  _90
REMARK   38  A    between atoms: _90  and  _91
REMARK   39  A    between atoms: _96  and  _98
REMARK   40  A    between atoms: _98  and  _99
REMARK   41  A    between atoms: _98  and  _101
REMARK   42  A    between atoms: _101  and  _102
REMARK   43  A    between atoms: _105  and  _107
REMARK   44  A    between atoms: _107  and  _108
REMARK   45  A    between atoms: _107  and  _110
REMARK   46  A    between atoms: _110  and  _111
REMARK   47  A    between atoms: _114  and  _116
REMARK   48  A    between atoms: _116  and  _117
REMARK   49  A    between atoms: _116  and  _119
REMARK   50  A    between atoms: _119  and  _120
REMARK   51  A    between atoms: _125  and  _126
REMARK   52  A    between atoms: _128  and  _130
REMARK   53  A    between atoms: _130  and  _131
REMARK   54  A    between atoms: _134  and  _135
REMARK   55  A    between atoms: _141  and  _142
REMARK   56  A    between atoms: _147  and  _149
REMARK   57  A    between atoms: _149  and  _150
REMARK   58  A    between atoms: _152  and  _154
REMARK   59  A    between atoms: _154  and  _155
REMARK   60  A    between atoms: _154  and  _157
REMARK   61  A    between atoms: _157  and  _158
REMARK   62  A    between atoms: _161  and  _163
REMARK   63  A    between atoms: _163  and  _164
REMARK   64  A    between atoms: _166  and  _168
REMARK   65  A    between atoms: _168  and  _169
REMARK   66  A    between atoms: _168  and  _171
REMARK   67  A    between atoms: _171  and  _172
REMARK   68  A    between atoms: _172  and  _173
REMARK   69  A    between atoms: _173  and  _174
REMARK   70  A    between atoms: _174  and  _175
REMARK   71  A    between atoms: _179  and  _181
REMARK   72  A    between atoms: _181  and  _182
REMARK   73  A    between atoms: _181  and  _184
REMARK   74  A    between atoms: _184  and  _185
REMARK   75  A    between atoms: _188  and  _190
REMARK   76  A    between atoms: _190  and  _191
REMARK   77  A    between atoms: _190  and  _193
REMARK   78  A    between atoms: _193  and  _194
REMARK   79  A    between atoms: _197  and  _199
REMARK   80  A    between atoms: _199  and  _200
REMARK   81  A    between atoms: _199  and  _202
REMARK   82  A    between atoms: _202  and  _203
REMARK   83  A    between atoms: _206  and  _208
REMARK   84  A    between atoms: _208  and  _209
REMARK   85  A    between atoms: _212  and  _214
REMARK   86  A    between atoms: _214  and  _215
REMARK   87  A    between atoms: _214  and  _217
REMARK   88  A    between atoms: _217  and  _218
REMARK   89  A    between atoms: _218  and  _219
REMARK   90  A    between atoms: _219  and  _220
REMARK   91  A    between atoms: _229  and  _231
REMARK   92  A    between atoms: _231  and  _232
REMARK   93  A    between atoms: _235  and  _237
REMARK   94  A    between atoms: _237  and  _238
REMARK   95  A    between atoms: _237  and  _240
REMARK   96  A    between atoms: _240  and  _241
REMARK   97  A    between atoms: _247  and  _249
REMARK   98  A    between atoms: _249  and  _250
REMARK   99  A    between atoms: _249  and  _252
REMARK  100  A    between atoms: _252  and  _253
REMARK  101  A    between atoms: _256  and  _258
REMARK  102  A    between atoms: _258  and  _259
REMARK  103  A    between atoms: _258  and  _261
REMARK  104  A    between atoms: _261  and  _262
REMARK  105  A    between atoms: _262  and  _263
REMARK  106  A    between atoms: _266  and  _268
REMARK  107  A    between atoms: _268  and  _269
REMARK  108  A    between atoms: _268  and  _271
REMARK  109  A    between atoms: _271  and  _272
REMARK  110  A    between atoms: _275  and  _277
REMARK  111  A    between atoms: _277  and  _278
REMARK  112  A    between atoms: _281  and  _283
REMARK  113  A    between atoms: _283  and  _284
REMARK  114  A    between atoms: _283  and  _286
REMARK  115  A    between atoms: _286  and  _287
REMARK  116  A    between atoms: _290  and  _292
REMARK  117  A    between atoms: _292  and  _293
REMARK  118  A    between atoms: _292  and  _295
REMARK  119  A    between atoms: _295  and  _296
REMARK  120  A    between atoms: _301  and  _303
REMARK  121  A    between atoms: _303  and  _304
REMARK  122  A    between atoms: _303  and  _306
REMARK  123  A    between atoms: _306  and  _307
REMARK  124  A    between atoms: _307  and  _308
REMARK  125  A    between atoms: _308  and  _309
REMARK  126  A    between atoms: _318  and  _320
REMARK  127  A    between atoms: _320  and  _321
REMARK  128  A    between atoms: _320  and  _323
REMARK  129  A    between atoms: _323  and  _324
REMARK  130  A    between atoms: _327  and  _329
REMARK  131  A    between atoms: _329  and  _330
REMARK  132  A    between atoms: _333  and  _334
REMARK  133  A    between atoms: _339  and  _341
REMARK  134  A    between atoms: _341  and  _342
REMARK  135  A    between atoms: _344  and  _346
REMARK  136  A    between atoms: _346  and  _347
REMARK  137  A    between atoms: _346  and  _349
REMARK  138  A    between atoms: _349  and  _350
REMARK  139  A    between atoms: _350  and  _351
REMARK  140  A    between atoms: _351  and  _352
REMARK  141  A    between atoms: _361  and  _363
REMARK  142  A    between atoms: _363  and  _364
REMARK  143  A    between atoms: _363  and  _366
REMARK  144  A    between atoms: _366  and  _367
REMARK  145  A    between atoms: _367  and  _368
REMARK  146  A    between atoms: _371  and  _373
REMARK  147  A    between atoms: _373  and  _374
REMARK  148  A    between atoms: _373  and  _376
REMARK  149  A    between atoms: _376  and  _377
REMARK  150  A    between atoms: _380  and  _382
REMARK  151  A    between atoms: _382  and  _383
REMARK  152  A    between atoms: _382  and  _385
REMARK  153  A    between atoms: _385  and  _386
REMARK  154  A    between atoms: _389  and  _391
REMARK  155  A    between atoms: _391  and  _392
REMARK  156  A    between atoms: _391  and  _394
REMARK  157  A    between atoms: _394  and  _395
REMARK  158  A    between atoms: _395  and  _396
REMARK  159  A    between atoms: _401  and  _403
REMARK  160  A    between atoms: _403  and  _404
REMARK  161  A    between atoms: _403  and  _406
REMARK  162  A    between atoms: _406  and  _407
REMARK  163  A    between atoms: _410  and  _412
REMARK  164  A    between atoms: _412  and  _413
REMARK  165  A    between atoms: _412  and  _415
REMARK  166  A    between atoms: _415  and  _416
REMARK  167  A    between atoms: _421  and  _423
REMARK  168  A    between atoms: _423  and  _424
REMARK  169  A    between atoms: _423  and  _426
REMARK  170  A    between atoms: _429  and  _431
REMARK  171  A    between atoms: _431  and  _432
REMARK  172  A    between atoms: _434  and  _436
REMARK  173  A    between atoms: _436  and  _437
REMARK  174  A    between atoms: _440  and  _442
REMARK  175  A    between atoms: _442  and  _443
REMARK  176  A    between atoms: _442  and  _445
REMARK  177  A    between atoms: _445  and  _446
REMARK  178  A    between atoms: _449  and  _451
REMARK  179  A    between atoms: _451  and  _452
REMARK  180  A    between atoms: _451  and  _454
REMARK  181  A    between atoms: _454  and  _455
REMARK  182  A    between atoms: _458  and  _460
REMARK  183  A    between atoms: _460  and  _461
REMARK  184  A    between atoms: _464  and  _466
REMARK  185  A    between atoms: _466  and  _467
REMARK  186  A    between atoms: _470  and  _472
REMARK  187  A    between atoms: _472  and  _473
REMARK  188  A    between atoms: _472  and  _475
REMARK  189  A    between atoms: _475  and  _476
REMARK  190  A    between atoms: _478  and  _480
REMARK  191  A    between atoms: _480  and  _481
REMARK  192  A    between atoms: _480  and  _483
REMARK  193  A    between atoms: _483  and  _484
REMARK  194  A    between atoms: _484  and  _485
REMARK  195  A    between atoms: _485  and  _486
REMARK  196  A    between atoms: _486  and  _487
REMARK  197  A    between atoms: _491  and  _493
REMARK  198  A    between atoms: _493  and  _494
REMARK  199  A    between atoms: _493  and  _496
REMARK  200  A    between atoms: _496  and  _497
REMARK  201  A    between atoms: _497  and  _498
REMARK  202  A    between atoms: _498  and  _499
REMARK  203  A    between atoms: _508  and  _510
REMARK  204  A    between atoms: _510  and  _511
REMARK  205  A    between atoms: _510  and  _513
REMARK  206  A    between atoms: _513  and  _514
REMARK  207  A    between atoms: _517  and  _519
REMARK  208  A    between atoms: _519  and  _520
REMARK  209  A    between atoms: _519  and  _522
REMARK  210  A    between atoms: _522  and  _523
REMARK  211  A    between atoms: _523  and  _524
REMARK  212  A    between atoms: _530  and  _531
REMARK  213  A    between atoms: _536  and  _538
REMARK  214  A    between atoms: _538  and  _539
REMARK  215  A    between atoms: _542  and  _544
REMARK  216  A    between atoms: _544  and  _545
REMARK  217  A    between atoms: _544  and  _547
REMARK  218  A    between atoms: _547  and  _548
REMARK  219  A    between atoms: _548  and  _549
REMARK  220  A    between atoms: _549  and  _550
REMARK  221  A    between atoms: _559  and  _561
REMARK  222  A    between atoms: _561  and  _562
REMARK  223  A    between atoms: _561  and  _564
REMARK  224  A    between atoms: _564  and  _565
REMARK  225  A    between atoms: _565  and  _566
REMARK  226  A    between atoms: _566  and  _567
REMARK  227  A    between atoms: _576  and  _578
REMARK  228  A    between atoms: _578  and  _579
REMARK  229  A    between atoms: _578  and  _581
REMARK  230  A    between atoms: _581  and  _582
REMARK  231  A    between atoms: _588  and  _590
REMARK  232  A    between atoms: _590  and  _591
REMARK  233  A    between atoms: _593  and  _595
REMARK  234  A    between atoms: _595  and  _596
REMARK  235  A    between atoms: _595  and  _598
REMARK  236  A    between atoms: _598  and  _599
REMARK  237  A    between atoms: _599  and  _600
REMARK  238  A    between atoms: _600  and  _601
REMARK                            x       y       z     vdW  Elec       q    Type
REMARK                         _______ _______ _______ _____ _____    ______ ____
ROOT
ATOM      1  O   HOH     1      19.510  56.270 -11.492  0.00  0.00    +0.000 OA
ENDROOT
TORSDOF 0
REMARK  Name = ../refined-set-2016/3hu3/3hu3_pocket.pdb
REMARK  238 active torsions:
REMARK  status: ('A' for Active; 'I' for Inactive)
REMARK    1  A    between atoms: _1  and  _3
REMARK    2  A    between atoms: _3  and  _4
REMARK    3  A    between atoms: _3  and  _6
REMARK    4  A    between atoms: _9  and  _11
REMARK    5  A    between atoms: _11  and  _12
REMARK    6  A    between atoms: _11  and  _14
REMARK    7  A    between atoms: _14  and  _15
REMARK    8  A    between atoms: _20  and  _21
REMARK    9  A    between atoms: _23  and  _25
REMARK   10  A    between atoms: _25  and  _26
REMARK   11  A    between atoms: _25  and  _28
REMARK   12  A    between atoms: _28  and  _29
REMARK   13  A    between atoms: _32  and  _34
REMARK   14  A    between atoms: _34  and  _35
REMARK   15  A    between atoms: _34  and  _37
REMARK   16  A    between atoms: _37  and  _38
REMARK   17  A    between atoms: _41  and  _43
REMARK   18  A    between atoms: _43  and  _44
REMARK   19  A    between atoms: _43  and  _46
REMARK   20  A    between atoms: _46  and  _47
REMARK   21  A    between atoms: _50  and  _52
REMARK   22  A    between atoms: _52  and  _53
REMARK   23  A    between atoms: _55  and  _57
REMARK   24  A    between atoms: _57  and  _58
REMARK   25  A    between atoms: _60  and  _62
REMARK   26  A    between atoms: _62  and  _63
REMARK   27  A    between atoms: _62  and  _65
REMARK   28  A    between atoms: _67  and  _69
REMARK   29  A    between atoms: _69  and  _70
REMARK   30  A    between atoms: _69  and  _72
REMARK   31  A    between atoms: _72  and  _73
REMARK   32  A    between atoms: _73  and  _74
REMARK   33  A    between atoms: _74  and  _75
REMARK   34  A    between atoms: _84  and  _86
REMARK   35  A    between atoms: _86  and  _87
REMARK   36  A    between atoms: _86  and  _89
REMARK   37  A    between atoms: _89  and  _90
REMARK   38  A    between atoms: _90  and  _91
REMARK   39  A    between atoms: _96  and  _98
REMARK   40  A    between atoms: _98  and  _99
REMARK   41  A    between atoms: _98  and  _101
REMARK   42  A    between atoms: _101  and  _102
REMARK   43  A    between atoms: _105  and  _107
REMARK   44  A    between atoms: _107  and  _108
REMARK   45  A    between atoms: _107  and  _110
REMARK   46  A    between atoms: _110  and  _111
REMARK   47  A    between atoms: _114  and  _116
REMARK   48  A    between atoms: _116  and  _117
REMARK   49  A    between atoms: _116  and  _119
REMARK   50  A    between atoms: _119  and  _120
REMARK   51  A    between atoms: _125  and  _126
REMARK   52  A    between atoms: _128  and  _130
REMARK   53  A    between atoms: _130  and  _131
REMARK   54  A    between atoms: _134  and  _135
REMARK   55  A    between atoms: _141  and  _142
REMARK   56  A    between atoms: _147  and  _149
REMARK   57  A    between atoms: _149  and  _150
REMARK   58  A    between atoms: _152  and  _154
REMARK   59  A    between atoms: _154  and  _155
REMARK   60  A    between atoms: _154  and  _157
REMARK   61  A    between atoms: _157  and  _158
REMARK   62  A    between atoms: _161  and  _163
REMARK   63  A    between atoms: _163  and  _164
REMARK   64  A    between atoms: _166  and  _168
REMARK   65  A    between atoms: _168  and  _169
REMARK   66  A    between atoms: _168  and  _171
REMARK   67  A    between atoms: _171  and  _172
REMARK   68  A    between atoms: _172  and  _173
REMARK   69  A    between atoms: _173  and  _174
REMARK   70  A    between atoms: _174  and  _175
REMARK   71  A    between atoms: _179  and  _181
REMARK   72  A    between atoms: _181  and  _182
REMARK   73  A    between atoms: _181  and  _184
REMARK   74  A    between atoms: _184  and  _185
REMARK   75  A    between atoms: _188  and  _190
REMARK   76  A    between atoms: _190  and  _191
REMARK   77  A    between atoms: _190  and  _193
REMARK   78  A    between atoms: _193  and  _194
REMARK   79  A    between atoms: _197  and  _199
REMARK   80  A    between atoms: _199  and  _200
REMARK   81  A    between atoms: _199  and  _202
REMARK   82  A    between atoms: _202  and  _203
REMARK   83  A    between atoms: _206  and  _208
REMARK   84  A    between atoms: _208  and  _209
REMARK   85  A    between atoms: _212  and  _214
REMARK   86  A    between atoms: _214  and  _215
REMARK   87  A    between atoms: _214  and  _217
REMARK   88  A    between atoms: _217  and  _218
REMARK   89  A    between atoms: _218  and  _219
REMARK   90  A    between atoms: _219  and  _220
REMARK   91  A    between atoms: _229  and  _231
REMARK   92  A    between atoms: _231  and  _232
REMARK   93  A    between atoms: _235  and  _237
REMARK   94  A    between atoms: _237  and  _238
REMARK   95  A    between atoms: _237  and  _240
REMARK   96  A    between atoms: _240  and  _241
REMARK   97  A    between atoms: _247  and  _249
REMARK   98  A    between atoms: _249  and  _250
REMARK   99  A    between atoms: _249  and  _252
REMARK  100  A    between atoms: _252  and  _253
REMARK  101  A    between atoms: _256  and  _258
REMARK  102  A    between atoms: _258  and  _259
REMARK  103  A    between atoms: _258  and  _261
REMARK  104  A    between atoms: _261  and  _262
REMARK  105  A    between atoms: _262  and  _263
REMARK  106  A    between atoms: _266  and  _268
REMARK  107  A    between atoms: _268  and  _269
REMARK  108  A    between atoms: _268  and  _271
REMARK  109  A    between atoms: _271  and  _272
REMARK  110  A    between atoms: _275  and  _277
REMARK  111  A    between atoms: _277  and  _278
REMARK  112  A    between atoms: _281  and  _283
REMARK  113  A    between atoms: _283  and  _284
REMARK  114  A    between atoms: _283  and  _286
REMARK  115  A    between atoms: _286  and  _287
REMARK  116  A    between atoms: _290  and  _292
REMARK  117  A    between atoms: _292  and  _293
REMARK  118  A    between atoms: _292  and  _295
REMARK  119  A    between atoms: _295  and  _296
REMARK  120  A    between atoms: _301  and  _303
REMARK  121  A    between atoms: _303  and  _304
REMARK  122  A    between atoms: _303  and  _306
REMARK  123  A    between atoms: _306  and  _307
REMARK  124  A    between atoms: _307  and  _308
REMARK  125  A    between atoms: _308  and  _309
REMARK  126  A    between atoms: _318  and  _320
REMARK  127  A    between atoms: _320  and  _321
REMARK  128  A    between atoms: _320  and  _323
REMARK  129  A    between atoms: _323  and  _324
REMARK  130  A    between atoms: _327  and  _329
REMARK  131  A    between atoms: _329  and  _330
REMARK  132  A    between atoms: _333  and  _334
REMARK  133  A    between atoms: _339  and  _341
REMARK  134  A    between atoms: _341  and  _342
REMARK  135  A    between atoms: _344  and  _346
REMARK  136  A    between atoms: _346  and  _347
REMARK  137  A    between atoms: _346  and  _349
REMARK  138  A    between atoms: _349  and  _350
REMARK  139  A    between atoms: _350  and  _351
REMARK  140  A    between atoms: _351  and  _352
REMARK  141  A    between atoms: _361  and  _363
REMARK  142  A    between atoms: _363  and  _364
REMARK  143  A    between atoms: _363  and  _366
REMARK  144  A    between atoms: _366  and  _367
REMARK  145  A    between atoms: _367  and  _368
REMARK  146  A    between atoms: _371  and  _373
REMARK  147  A    between atoms: _373  and  _374
REMARK  148  A    between atoms: _373  and  _376
REMARK  149  A    between atoms: _376  and  _377
REMARK  150  A    between atoms: _380  and  _382
REMARK  151  A    between atoms: _382  and  _383
REMARK  152  A    between atoms: _382  and  _385
REMARK  153  A    between atoms: _385  and  _386
REMARK  154  A    between atoms: _389  and  _391
REMARK  155  A    between atoms: _391  and  _392
REMARK  156  A    between atoms: _391  and  _394
REMARK  157  A    between atoms: _394  and  _395
REMARK  158  A    between atoms: _395  and  _396
REMARK  159  A    between atoms: _401  and  _403
REMARK  160  A    between atoms: _403  and  _404
REMARK  161  A    between atoms: _403  and  _406
REMARK  162  A    between atoms: _406  and  _407
REMARK  163  A    between atoms: _410  and  _412
REMARK  164  A    between atoms: _412  and  _413
REMARK  165  A    between atoms: _412  and  _415
REMARK  166  A    between atoms: _415  and  _416
REMARK  167  A    between atoms: _421  and  _423
REMARK  168  A    between atoms: _423  and  _424
REMARK  169  A    between atoms: _423  and  _426
REMARK  170  A    between atoms: _429  and  _431
REMARK  171  A    between atoms: _431  and  _432
REMARK  172  A    between atoms: _434  and  _436
REMARK  173  A    between atoms: _436  and  _437
REMARK  174  A    between atoms: _440  and  _442
REMARK  175  A    between atoms: _442  and  _443
REMARK  176  A    between atoms: _442  and  _445
REMARK  177  A    between atoms: _445  and  _446
REMARK  178  A    between atoms: _449  and  _451
REMARK  179  A    between atoms: _451  and  _452
REMARK  180  A    between atoms: _451  and  _454
REMARK  181  A    between atoms: _454  and  _455
REMARK  182  A    between atoms: _458  and  _460
REMARK  183  A    between atoms: _460  and  _461
REMARK  184  A    between atoms: _464  and  _466
REMARK  185  A    between atoms: _466  and  _467
REMARK  186  A    between atoms: _470  and  _472
REMARK  187  A    between atoms: _472  and  _473
REMARK  188  A    between atoms: _472  and  _475
REMARK  189  A    between atoms: _475  and  _476
REMARK  190  A    between atoms: _478  and  _480
REMARK  191  A    between atoms: _480  and  _481
REMARK  192  A    between atoms: _480  and  _483
REMARK  193  A    between atoms: _483  and  _484
REMARK  194  A    between atoms: _484  and  _485
REMARK  195  A    between atoms: _485  and  _486
REMARK  196  A    between atoms: _486  and  _487
REMARK  197  A    between atoms: _491  and  _493
REMARK  198  A    between atoms: _493  and  _494
REMARK  199  A    between atoms: _493  and  _496
REMARK  200  A    between atoms: _496  and  _497
REMARK  201  A    between atoms: _497  and  _498
REMARK  202  A    between atoms: _498  and  _499
REMARK  203  A    between atoms: _508  and  _510
REMARK  204  A    between atoms: _510  and  _511
REMARK  205  A    between atoms: _510  and  _513
REMARK  206  A    between atoms: _513  and  _514
REMARK  207  A    between atoms: _517  and  _519
REMARK  208  A    between atoms: _519  and  _520
REMARK  209  A    between atoms: _519  and  _522
REMARK  210  A    between atoms: _522  and  _523
REMARK  211  A    between atoms: _523  and  _524
REMARK  212  A    between atoms: _530  and  _531
REMARK  213  A    between atoms: _536  and  _538
REMARK  214  A    between atoms: _538  and  _539
REMARK  215  A    between atoms: _542  and  _544
REMARK  216  A    between atoms: _544  and  _545
REMARK  217  A    between atoms: _544  and  _547
REMARK  218  A    between atoms: _547  and  _548
REMARK  219  A    between atoms: _548  and  _549
REMARK  220  A    between atoms: _549  and  _550
REMARK  221  A    between atoms: _559  and  _561
REMARK  222  A    between atoms: _561  and  _562
REMARK  223  A    between atoms: _561  and  _564
REMARK  224  A    between atoms: _564  and  _565
REMARK  225  A    between atoms: _565  and  _566
REMARK  226  A    between atoms: _566  and  _567
REMARK  227  A    between atoms: _576  and  _578
REMARK  228  A    between atoms: _578  and  _579
REMARK  229  A    between atoms: _578  and  _581
REMARK  230  A    between atoms: _581  and  _582
REMARK  231  A    between atoms: _588  and  _590
REMARK  232  A    between atoms: _590  and  _591
REMARK  233  A    between atoms: _593  and  _595
REMARK  234  A    between atoms: _595  and  _596
REMARK  235  A    between atoms: _595  and  _598
REMARK  236  A    between atoms: _598  and  _599
REMARK  237  A    between atoms: _599  and  _600
REMARK  238  A    between atoms: _600  and  _601
REMARK                            x       y       z     vdW  Elec       q    Type
REMARK                         _______ _______ _______ _____ _____    ______ ____
ROOT
ATOM      1  O   HOH     1      22.219  41.730  -6.690  0.00  0.00    +0.000 OA
ENDROOT
TORSDOF 0
REMARK  Name = ../refined-set-2016/3hu3/3hu3_pocket.pdb
REMARK  238 active torsions:
REMARK  status: ('A' for Active; 'I' for Inactive)
REMARK    1  A    between atoms: _1  and  _3
REMARK    2  A    between atoms: _3  and  _4
REMARK    3  A    between atoms: _3  and  _6
REMARK    4  A    between atoms: _9  and  _11
REMARK    5  A    between atoms: _11  and  _12
REMARK    6  A    between atoms: _11  and  _14
REMARK    7  A    between atoms: _14  and  _15
REMARK    8  A    between atoms: _20  and  _21
REMARK    9  A    between atoms: _23  and  _25
REMARK   10  A    between atoms: _25  and  _26
REMARK   11  A    between atoms: _25  and  _28
REMARK   12  A    between atoms: _28  and  _29
REMARK   13  A    between atoms: _32  and  _34
REMARK   14  A    between atoms: _34  and  _35
REMARK   15  A    between atoms: _34  and  _37
REMARK   16  A    between atoms: _37  and  _38
REMARK   17  A    between atoms: _41  and  _43
REMARK   18  A    between atoms: _43  and  _44
REMARK   19  A    between atoms: _43  and  _46
REMARK   20  A    between atoms: _46  and  _47
REMARK   21  A    between atoms: _50  and  _52
REMARK   22  A    between atoms: _52  and  _53
REMARK   23  A    between atoms: _55  and  _57
REMARK   24  A    between atoms: _57  and  _58
REMARK   25  A    between atoms: _60  and  _62
REMARK   26  A    between atoms: _62  and  _63
REMARK   27  A    between atoms: _62  and  _65
REMARK   28  A    between atoms: _67  and  _69
REMARK   29  A    between atoms: _69  and  _70
REMARK   30  A    between atoms: _69  and  _72
REMARK   31  A    between atoms: _72  and  _73
REMARK   32  A    between atoms: _73  and  _74
REMARK   33  A    between atoms: _74  and  _75
REMARK   34  A    between atoms: _84  and  _86
REMARK   35  A    between atoms: _86  and  _87
REMARK   36  A    between atoms: _86  and  _89
REMARK   37  A    between atoms: _89  and  _90
REMARK   38  A    between atoms: _90  and  _91
REMARK   39  A    between atoms: _96  and  _98
REMARK   40  A    between atoms: _98  and  _99
REMARK   41  A    between atoms: _98  and  _101
REMARK   42  A    between atoms: _101  and  _102
REMARK   43  A    between atoms: _105  and  _107
REMARK   44  A    between atoms: _107  and  _108
REMARK   45  A    between atoms: _107  and  _110
REMARK   46  A    between atoms: _110  and  _111
REMARK   47  A    between atoms: _114  and  _116
REMARK   48  A    between atoms: _116  and  _117
REMARK   49  A    between atoms: _116  and  _119
REMARK   50  A    between atoms: _119  and  _120
REMARK   51  A    between atoms: _125  and  _126
REMARK   52  A    between atoms: _128  and  _130
REMARK   53  A    between atoms: _130  and  _131
REMARK   54  A    between atoms: _134  and  _135
REMARK   55  A    between atoms: _141  and  _142
REMARK   56  A    between atoms: _147  and  _149
REMARK   57  A    between atoms: _149  and  _150
REMARK   58  A    between atoms: _152  and  _154
REMARK   59  A    between atoms: _154  and  _155
REMARK   60  A    between atoms: _154  and  _157
REMARK   61  A    between atoms: _157  and  _158
REMARK   62  A    between atoms: _161  and  _163
REMARK   63  A    between atoms: _163  and  _164
REMARK   64  A    between atoms: _166  and  _168
REMARK   65  A    between atoms: _168  and  _169
REMARK   66  A    between atoms: _168  and  _171
REMARK   67  A    between atoms: _171  and  _172
REMARK   68  A    between atoms: _172  and  _173
REMARK   69  A    between atoms: _173  and  _174
REMARK   70  A    between atoms: _174  and  _175
REMARK   71  A    between atoms: _179  and  _181
REMARK   72  A    between atoms: _181  and  _182
REMARK   73  A    between atoms: _181  and  _184
REMARK   74  A    between atoms: _184  and  _185
REMARK   75  A    between atoms: _188  and  _190
REMARK   76  A    between atoms: _190  and  _191
REMARK   77  A    between atoms: _190  and  _193
REMARK   78  A    between atoms: _193  and  _194
REMARK   79  A    between atoms: _197  and  _199
REMARK   80  A    between atoms: _199  and  _200
REMARK   81  A    between atoms: _199  and  _202
REMARK   82  A    between atoms: _202  and  _203
REMARK   83  A    between atoms: _206  and  _208
REMARK   84  A    between atoms: _208  and  _209
REMARK   85  A    between atoms: _212  and  _214
REMARK   86  A    between atoms: _214  and  _215
REMARK   87  A    between atoms: _214  and  _217
REMARK   88  A    between atoms: _217  and  _218
REMARK   89  A    between atoms: _218  and  _219
REMARK   90  A    between atoms: _219  and  _220
REMARK   91  A    between atoms: _229  and  _231
REMARK   92  A    between atoms: _231  and  _232
REMARK   93  A    between atoms: _235  and  _237
REMARK   94  A    between atoms: _237  and  _238
REMARK   95  A    between atoms: _237  and  _240
REMARK   96  A    between atoms: _240  and  _241
REMARK   97  A    between atoms: _247  and  _249
REMARK   98  A    between atoms: _249  and  _250
REMARK   99  A    between atoms: _249  and  _252
REMARK  100  A    between atoms: _252  and  _253
REMARK  101  A    between atoms: _256  and  _258
REMARK  102  A    between atoms: _258  and  _259
REMARK  103  A    between atoms: _258  and  _261
REMARK  104  A    between atoms: _261  and  _262
REMARK  105  A    between atoms: _262  and  _263
REMARK  106  A    between atoms: _266  and  _268
REMARK  107  A    between atoms: _268  and  _269
REMARK  108  A    between atoms: _268  and  _271
REMARK  109  A    between atoms: _271  and  _272
REMARK  110  A    between atoms: _275  and  _277
REMARK  111  A    between atoms: _277  and  _278
REMARK  112  A    between atoms: _281  and  _283
REMARK  113  A    between atoms: _283  and  _284
REMARK  114  A    between atoms: _283  and  _286
REMARK  115  A    between atoms: _286  and  _287
REMARK  116  A    between atoms: _290  and  _292
REMARK  117  A    between atoms: _292  and  _293
REMARK  118  A    between atoms: _292  and  _295
REMARK  119  A    between atoms: _295  and  _296
REMARK  120  A    between atoms: _301  and  _303
REMARK  121  A    between atoms: _303  and  _304
REMARK  122  A    between atoms: _303  and  _306
REMARK  123  A    between atoms: _306  and  _307
REMARK  124  A    between atoms: _307  and  _308
REMARK  125  A    between atoms: _308  and  _309
REMARK  126  A    between atoms: _318  and  _320
REMARK  127  A    between atoms: _320  and  _321
REMARK  128  A    between atoms: _320  and  _323
REMARK  129  A    between atoms: _323  and  _324
REMARK  130  A    between atoms: _327  and  _329
REMARK  131  A    between atoms: _329  and  _330
REMARK  132  A    between atoms: _333  and  _334
REMARK  133  A    between atoms: _339  and  _341
REMARK  134  A    between atoms: _341  and  _342
REMARK  135  A    between atoms: _344  and  _346
REMARK  136  A    between atoms: _346  and  _347
REMARK  137  A    between atoms: _346  and  _349
REMARK  138  A    between atoms: _349  and  _350
REMARK  139  A    between atoms: _350  and  _351
REMARK  140  A    between atoms: _351  and  _352
REMARK  141  A    between atoms: _361  and  _363
REMARK  142  A    between atoms: _363  and  _364
REMARK  143  A    between atoms: _363  and  _366
REMARK  144  A    between atoms: _366  and  _367
REMARK  145  A    between atoms: _367  and  _368
REMARK  146  A    between atoms: _371  and  _373
REMARK  147  A    between atoms: _373  and  _374
REMARK  148  A    between atoms: _373  and  _376
REMARK  149  A    between atoms: _376  and  _377
REMARK  150  A    between atoms: _380  and  _382
REMARK  151  A    between atoms: _382  and  _383
REMARK  152  A    between atoms: _382  and  _385
REMARK  153  A    between atoms: _385  and  _386
REMARK  154  A    between atoms: _389  and  _391
REMARK  155  A    between atoms: _391  and  _392
REMARK  156  A    between atoms: _391  and  _394
REMARK  157  A    between atoms: _394  and  _395
REMARK  158  A    between atoms: _395  and  _396
REMARK  159  A    between atoms: _401  and  _403
REMARK  160  A    between atoms: _403  and  _404
REMARK  161  A    between atoms: _403  and  _406
REMARK  162  A    between atoms: _406  and  _407
REMARK  163  A    between atoms: _410  and  _412
REMARK  164  A    between atoms: _412  and  _413
REMARK  165  A    between atoms: _412  and  _415
REMARK  166  A    between atoms: _415  and  _416
REMARK  167  A    between atoms: _421  and  _423
REMARK  168  A    between atoms: _423  and  _424
REMARK  169  A    between atoms: _423  and  _426
REMARK  170  A    between atoms: _429  and  _431
REMARK  171  A    between atoms: _431  and  _432
REMARK  172  A    between atoms: _434  and  _436
REMARK  173  A    between atoms: _436  and  _437
REMARK  174  A    between atoms: _440  and  _442
REMARK  175  A    between atoms: _442  and  _443
REMARK  176  A    between atoms: _442  and  _445
REMARK  177  A    between atoms: _445  and  _446
REMARK  178  A    between atoms: _449  and  _451
REMARK  179  A    between atoms: _451  and  _452
REMARK  180  A    between atoms: _451  and  _454
REMARK  181  A    between atoms: _454  and  _455
REMARK  182  A    between atoms: _458  and  _460
REMARK  183  A    between atoms: _460  and  _461
REMARK  184  A    between atoms: _464  and  _466
REMARK  185  A    between atoms: _466  and  _467
REMARK  186  A    between atoms: _470  and  _472
REMARK  187  A    between atoms: _472  and  _473
REMARK  188  A    between atoms: _472  and  _475
REMARK  189  A    between atoms: _475  and  _476
REMARK  190  A    between atoms: _478  and  _480
REMARK  191  A    between atoms: _480  and  _481
REMARK  192  A    between atoms: _480  and  _483
REMARK  193  A    between atoms: _483  and  _484
REMARK  194  A    between atoms: _484  and  _485
REMARK  195  A    between atoms: _485  and  _486
REMARK  196  A    between atoms: _486  and  _487
REMARK  197  A    between atoms: _491  and  _493
REMARK  198  A    between atoms: _493  and  _494
REMARK  199  A    between atoms: _493  and  _496
REMARK  200  A    between atoms: _496  and  _497
REMARK  201  A    between atoms: _497  and  _498
REMARK  202  A    between atoms: _498  and  _499
REMARK  203  A    between atoms: _508  and  _510
REMARK  204  A    between atoms: _510  and  _511
REMARK  205  A    between atoms: _510  and  _513
REMARK  206  A    between atoms: _513  and  _514
REMARK  207  A    between atoms: _517  and  _519
REMARK  208  A    between atoms: _519  and  _520
REMARK  209  A    between atoms: _519  and  _522
REMARK  210  A    between atoms: _522  and  _523
REMARK  211  A    between atoms: _523  and  _524
REMARK  212  A    between atoms: _530  and  _531
REMARK  213  A    between atoms: _536  and  _538
REMARK  214  A    between atoms: _538  and  _539
REMARK  215  A    between atoms: _542  and  _544
REMARK  216  A    between atoms: _544  and  _545
REMARK  217  A    between atoms: _544  and  _547
REMARK  218  A    between atoms: _547  and  _548
REMARK  219  A    between atoms: _548  and  _549
REMARK  220  A    between atoms: _549  and  _550
REMARK  221  A    between atoms: _559  and  _561
REMARK  222  A    between atoms: _561  and  _562
REMARK  223  A    between atoms: _561  and  _564
REMARK  224  A    between atoms: _564  and  _565
REMARK  225  A    between atoms: _565  and  _566
REMARK  226  A    between atoms: _566  and  _567
REMARK  227  A    between atoms: _576  and  _578
REMARK  228  A    between atoms: _578  and  _579
REMARK  229  A    between atoms: _578  and  _581
REMARK  230  A    between atoms: _581  and  _582
REMARK  231  A    between atoms: _588  and  _590
REMARK  232  A    between atoms: _590  and  _591
REMARK  233  A    between atoms: _593  and  _595
REMARK  234  A    between atoms: _595  and  _596
REMARK  235  A    between atoms: _595  and  _598
REMARK  236  A    between atoms: _598  and  _599
REMARK  237  A    between atoms: _599  and  _600
REMARK  238  A    between atoms: _600  and  _601
REMARK                            x       y       z     vdW  Elec       q    Type
REMARK                         _______ _______ _______ _____ _____    ______ ____
ROOT
ATOM      1  O   HOH     1      20.650  47.443  -6.593  0.00  0.00    +0.000 OA
ENDROOT
TORSDOF 0
REMARK  Name = ../refined-set-2016/3hu3/3hu3_pocket.pdb
REMARK  238 active torsions:
REMARK  status: ('A' for Active; 'I' for Inactive)
REMARK    1  A    between atoms: _1  and  _3
REMARK    2  A    between atoms: _3  and  _4
REMARK    3  A    between atoms: _3  and  _6
REMARK    4  A    between atoms: _9  and  _11
REMARK    5  A    between atoms: _11  and  _12
REMARK    6  A    between atoms: _11  and  _14
REMARK    7  A    between atoms: _14  and  _15
REMARK    8  A    between atoms: _20  and  _21
REMARK    9  A    between atoms: _23  and  _25
REMARK   10  A    between atoms: _25  and  _26
REMARK   11  A    between atoms: _25  and  _28
REMARK   12  A    between atoms: _28  and  _29
REMARK   13  A    between atoms: _32  and  _34
REMARK   14  A    between atoms: _34  and  _35
REMARK   15  A    between atoms: _34  and  _37
REMARK   16  A    between atoms: _37  and  _38
REMARK   17  A    between atoms: _41  and  _43
REMARK   18  A    between atoms: _43  and  _44
REMARK   19  A    between atoms: _43  and  _46
REMARK   20  A    between atoms: _46  and  _47
REMARK   21  A    between atoms: _50  and  _52
REMARK   22  A    between atoms: _52  and  _53
REMARK   23  A    between atoms: _55  and  _57
REMARK   24  A    between atoms: _57  and  _58
REMARK   25  A    between atoms: _60  and  _62
REMARK   26  A    between atoms: _62  and  _63
REMARK   27  A    between atoms: _62  and  _65
REMARK   28  A    between atoms: _67  and  _69
REMARK   29  A    between atoms: _69  and  _70
REMARK   30  A    between atoms: _69  and  _72
REMARK   31  A    between atoms: _72  and  _73
REMARK   32  A    between atoms: _73  and  _74
REMARK   33  A    between atoms: _74  and  _75
REMARK   34  A    between atoms: _84  and  _86
REMARK   35  A    between atoms: _86  and  _87
REMARK   36  A    between atoms: _86  and  _89
REMARK   37  A    between atoms: _89  and  _90
REMARK   38  A    between atoms: _90  and  _91
REMARK   39  A    between atoms: _96  and  _98
REMARK   40  A    between atoms: _98  and  _99
REMARK   41  A    between atoms: _98  and  _101
REMARK   42  A    between atoms: _101  and  _102
REMARK   43  A    between atoms: _105  and  _107
REMARK   44  A    between atoms: _107  and  _108
REMARK   45  A    between atoms: _107  and  _110
REMARK   46  A    between atoms: _110  and  _111
REMARK   47  A    between atoms: _114  and  _116
REMARK   48  A    between atoms: _116  and  _117
REMARK   49  A    between atoms: _116  and  _119
REMARK   50  A    between atoms: _119  and  _120
REMARK   51  A    between atoms: _125  and  _126
REMARK   52  A    between atoms: _128  and  _130
REMARK   53  A    between atoms: _130  and  _131
REMARK   54  A    between atoms: _134  and  _135
REMARK   55  A    between atoms: _141  and  _142
REMARK   56  A    between atoms: _147  and  _149
REMARK   57  A    between atoms: _149  and  _150
REMARK   58  A    between atoms: _152  and  _154
REMARK   59  A    between atoms: _154  and  _155
REMARK   60  A    between atoms: _154  and  _157
REMARK   61  A    between atoms: _157  and  _158
REMARK   62  A    between atoms: _161  and  _163
REMARK   63  A    between atoms: _163  and  _164
REMARK   64  A    between atoms: _166  and  _168
REMARK   65  A    between atoms: _168  and  _169
REMARK   66  A    between atoms: _168  and  _171
REMARK   67  A    between atoms: _171  and  _172
REMARK   68  A    between atoms: _172  and  _173
REMARK   69  A    between atoms: _173  and  _174
REMARK   70  A    between atoms: _174  and  _175
REMARK   71  A    between atoms: _179  and  _181
REMARK   72  A    between atoms: _181  and  _182
REMARK   73  A    between atoms: _181  and  _184
REMARK   74  A    between atoms: _184  and  _185
REMARK   75  A    between atoms: _188  and  _190
REMARK   76  A    between atoms: _190  and  _191
REMARK   77  A    between atoms: _190  and  _193
REMARK   78  A    between atoms: _193  and  _194
REMARK   79  A    between atoms: _197  and  _199
REMARK   80  A    between atoms: _199  and  _200
REMARK   81  A    between atoms: _199  and  _202
REMARK   82  A    between atoms: _202  and  _203
REMARK   83  A    between atoms: _206  and  _208
REMARK   84  A    between atoms: _208  and  _209
REMARK   85  A    between atoms: _212  and  _214
REMARK   86  A    between atoms: _214  and  _215
REMARK   87  A    between atoms: _214  and  _217
REMARK   88  A    between atoms: _217  and  _218
REMARK   89  A    between atoms: _218  and  _219
REMARK   90  A    between atoms: _219  and  _220
REMARK   91  A    between atoms: _229  and  _231
REMARK   92  A    between atoms: _231  and  _232
REMARK   93  A    between atoms: _235  and  _237
REMARK   94  A    between atoms: _237  and  _238
REMARK   95  A    between atoms: _237  and  _240
REMARK   96  A    between atoms: _240  and  _241
REMARK   97  A    between atoms: _247  and  _249
REMARK   98  A    between atoms: _249  and  _250
REMARK   99  A    between atoms: _249  and  _252
REMARK  100  A    between atoms: _252  and  _253
REMARK  101  A    between atoms: _256  and  _258
REMARK  102  A    between atoms: _258  and  _259
REMARK  103  A    between atoms: _258  and  _261
REMARK  104  A    between atoms: _261  and  _262
REMARK  105  A    between atoms: _262  and  _263
REMARK  106  A    between atoms: _266  and  _268
REMARK  107  A    between atoms: _268  and  _269
REMARK  108  A    between atoms: _268  and  _271
REMARK  109  A    between atoms: _271  and  _272
REMARK  110  A    between atoms: _275  and  _277
REMARK  111  A    between atoms: _277  and  _278
REMARK  112  A    between atoms: _281  and  _283
REMARK  113  A    between atoms: _283  and  _284
REMARK  114  A    between atoms: _283  and  _286
REMARK  115  A    between atoms: _286  and  _287
REMARK  116  A    between atoms: _290  and  _292
REMARK  117  A    between atoms: _292  and  _293
REMARK  118  A    between atoms: _292  and  _295
REMARK  119  A    between atoms: _295  and  _296
REMARK  120  A    between atoms: _301  and  _303
REMARK  121  A    between atoms: _303  and  _304
REMARK  122  A    between atoms: _303  and  _306
REMARK  123  A    between atoms: _306  and  _307
REMARK  124  A    between atoms: _307  and  _308
REMARK  125  A    between atoms: _308  and  _309
REMARK  126  A    between atoms: _318  and  _320
REMARK  127  A    between atoms: _320  and  _321
REMARK  128  A    between atoms: _320  and  _323
REMARK  129  A    between atoms: _323  and  _324
REMARK  130  A    between atoms: _327  and  _329
REMARK  131  A    between atoms: _329  and  _330
REMARK  132  A    between atoms: _333  and  _334
REMARK  133  A    between atoms: _339  and  _341
REMARK  134  A    between atoms: _341  and  _342
REMARK  135  A    between atoms: _344  and  _346
REMARK  136  A    between atoms: _346  and  _347
REMARK  137  A    between atoms: _346  and  _349
REMARK  138  A    between atoms: _349  and  _350
REMARK  139  A    between atoms: _350  and  _351
REMARK  140  A    between atoms: _351  and  _352
REMARK  141  A    between atoms: _361  and  _363
REMARK  142  A    between atoms: _363  and  _364
REMARK  143  A    between atoms: _363  and  _366
REMARK  144  A    between atoms: _366  and  _367
REMARK  145  A    between atoms: _367  and  _368
REMARK  146  A    between atoms: _371  and  _373
REMARK  147  A    between atoms: _373  and  _374
REMARK  148  A    between atoms: _373  and  _376
REMARK  149  A    between atoms: _376  and  _377
REMARK  150  A    between atoms: _380  and  _382
REMARK  151  A    between atoms: _382  and  _383
REMARK  152  A    between atoms: _382  and  _385
REMARK  153  A    between atoms: _385  and  _386
REMARK  154  A    between atoms: _389  and  _391
REMARK  155  A    between atoms: _391  and  _392
REMARK  156  A    between atoms: _391  and  _394
REMARK  157  A    between atoms: _394  and  _395
REMARK  158  A    between atoms: _395  and  _396
REMARK  159  A    between atoms: _401  and  _403
REMARK  160  A    between atoms: _403  and  _404
REMARK  161  A    between atoms: _403  and  _406
REMARK  162  A    between atoms: _406  and  _407
REMARK  163  A    between atoms: _410  and  _412
REMARK  164  A    between atoms: _412  and  _413
REMARK  165  A    between atoms: _412  and  _415
REMARK  166  A    between atoms: _415  and  _416
REMARK  167  A    between atoms: _421  and  _423
REMARK  168  A    between atoms: _423  and  _424
REMARK  169  A    between atoms: _423  and  _426
REMARK  170  A    between atoms: _429  and  _431
REMARK  171  A    between atoms: _431  and  _432
REMARK  172  A    between atoms: _434  and  _436
REMARK  173  A    between atoms: _436  and  _437
REMARK  174  A    between atoms: _440  and  _442
REMARK  175  A    between atoms: _442  and  _443
REMARK  176  A    between atoms: _442  and  _445
REMARK  177  A    between atoms: _445  and  _446
REMARK  178  A    between atoms: _449  and  _451
REMARK  179  A    between atoms: _451  and  _452
REMARK  180  A    between atoms: _451  and  _454
REMARK  181  A    between atoms: _454  and  _455
REMARK  182  A    between atoms: _458  and  _460
REMARK  183  A    between atoms: _460  and  _461
REMARK  184  A    between atoms: _464  and  _466
REMARK  185  A    between atoms: _466  and  _467
REMARK  186  A    between atoms: _470  and  _472
REMARK  187  A    between atoms: _472  and  _473
REMARK  188  A    between atoms: _472  and  _475
REMARK  189  A    between atoms: _475  and  _476
REMARK  190  A    between atoms: _478  and  _480
REMARK  191  A    between atoms: _480  and  _481
REMARK  192  A    between atoms: _480  and  _483
REMARK  193  A    between atoms: _483  and  _484
REMARK  194  A    between atoms: _484  and  _485
REMARK  195  A    between atoms: _485  and  _486
REMARK  196  A    between atoms: _486  and  _487
REMARK  197  A    between atoms: _491  and  _493
REMARK  198  A    between atoms: _493  and  _494
REMARK  199  A    between atoms: _493  and  _496
REMARK  200  A    between atoms: _496  and  _497
REMARK  201  A    between atoms: _497  and  _498
REMARK  202  A    between atoms: _498  and  _499
REMARK  203  A    between atoms: _508  and  _510
REMARK  204  A    between atoms: _510  and  _511
REMARK  205  A    between atoms: _510  and  _513
REMARK  206  A    between atoms: _513  and  _514
REMARK  207  A    between atoms: _517  and  _519
REMARK  208  A    between atoms: _519  and  _520
REMARK  209  A    between atoms: _519  and  _522
REMARK  210  A    between atoms: _522  and  _523
REMARK  211  A    between atoms: _523  and  _524
REMARK  212  A    between atoms: _530  and  _531
REMARK  213  A    between atoms: _536  and  _538
REMARK  214  A    between atoms: _538  and  _539
REMARK  215  A    between atoms: _542  and  _544
REMARK  216  A    between atoms: _544  and  _545
REMARK  217  A    between atoms: _544  and  _547
REMARK  218  A    between atoms: _547  and  _548
REMARK  219  A    between atoms: _548  and  _549
REMARK  220  A    between atoms: _549  and  _550
REMARK  221  A    between atoms: _559  and  _561
REMARK  222  A    between atoms: _561  and  _562
REMARK  223  A    between atoms: _561  and  _564
REMARK  224  A    between atoms: _564  and  _565
REMARK  225  A    between atoms: _565  and  _566
REMARK  226  A    between atoms: _566  and  _567
REMARK  227  A    between atoms: _576  and  _578
REMARK  228  A    between atoms: _578  and  _579
REMARK  229  A    between atoms: _578  and  _581
REMARK  230  A    between atoms: _581  and  _582
REMARK  231  A    between atoms: _588  and  _590
REMARK  232  A    between atoms: _590  and  _591
REMARK  233  A    between atoms: _593  and  _595
REMARK  234  A    between atoms: _595  and  _596
REMARK  235  A    between atoms: _595  and  _598
REMARK  236  A    between atoms: _598  and  _599
REMARK  237  A    between atoms: _599  and  _600
REMARK  238  A    between atoms: _600  and  _601
REMARK                            x       y       z     vdW  Elec       q    Type
REMARK                         _______ _______ _______ _____ _____    ______ ____
ROOT
ATOM      1  O   HOH     1      14.310  48.280  -5.512  0.00  0.00    +0.000 OA
ENDROOT
TORSDOF 0
REMARK  Name = ../refined-set-2016/3hu3/3hu3_pocket.pdb
REMARK  238 active torsions:
REMARK  status: ('A' for Active; 'I' for Inactive)
REMARK    1  A    between atoms: _1  and  _3
REMARK    2  A    between atoms: _3  and  _4
REMARK    3  A    between atoms: _3  and  _6
REMARK    4  A    between atoms: _9  and  _11
REMARK    5  A    between atoms: _11  and  _12
REMARK    6  A    between atoms: _11  and  _14
REMARK    7  A    between atoms: _14  and  _15
REMARK    8  A    between atoms: _20  and  _21
REMARK    9  A    between atoms: _23  and  _25
REMARK   10  A    between atoms: _25  and  _26
REMARK   11  A    between atoms: _25  and  _28
REMARK   12  A    between atoms: _28  and  _29
REMARK   13  A    between atoms: _32  and  _34
REMARK   14  A    between atoms: _34  and  _35
REMARK   15  A    between atoms: _34  and  _37
REMARK   16  A    between atoms: _37  and  _38
REMARK   17  A    between atoms: _41  and  _43
REMARK   18  A    between atoms: _43  and  _44
REMARK   19  A    between atoms: _43  and  _46
REMARK   20  A    between atoms: _46  and  _47
REMARK   21  A    between atoms: _50  and  _52
REMARK   22  A    between atoms: _52  and  _53
REMARK   23  A    between atoms: _55  and  _57
REMARK   24  A    between atoms: _57  and  _58
REMARK   25  A    between atoms: _60  and  _62
REMARK   26  A    between atoms: _62  and  _63
REMARK   27  A    between atoms: _62  and  _65
REMARK   28  A    between atoms: _67  and  _69
REMARK   29  A    between atoms: _69  and  _70
REMARK   30  A    between atoms: _69  and  _72
REMARK   31  A    between atoms: _72  and  _73
REMARK   32  A    between atoms: _73  and  _74
REMARK   33  A    between atoms: _74  and  _75
REMARK   34  A    between atoms: _84  and  _86
REMARK   35  A    between atoms: _86  and  _87
REMARK   36  A    between atoms: _86  and  _89
REMARK   37  A    between atoms: _89  and  _90
REMARK   38  A    between atoms: _90  and  _91
REMARK   39  A    between atoms: _96  and  _98
REMARK   40  A    between atoms: _98  and  _99
REMARK   41  A    between atoms: _98  and  _101
REMARK   42  A    between atoms: _101  and  _102
REMARK   43  A    between atoms: _105  and  _107
REMARK   44  A    between atoms: _107  and  _108
REMARK   45  A    between atoms: _107  and  _110
REMARK   46  A    between atoms: _110  and  _111
REMARK   47  A    between atoms: _114  and  _116
REMARK   48  A    between atoms: _116  and  _117
REMARK   49  A    between atoms: _116  and  _119
REMARK   50  A    between atoms: _119  and  _120
REMARK   51  A    between atoms: _125  and  _126
REMARK   52  A    between atoms: _128  and  _130
REMARK   53  A    between atoms: _130  and  _131
REMARK   54  A    between atoms: _134  and  _135
REMARK   55  A    between atoms: _141  and  _142
REMARK   56  A    between atoms: _147  and  _149
REMARK   57  A    between atoms: _149  and  _150
REMARK   58  A    between atoms: _152  and  _154
REMARK   59  A    between atoms: _154  and  _155
REMARK   60  A    between atoms: _154  and  _157
REMARK   61  A    between atoms: _157  and  _158
REMARK   62  A    between atoms: _161  and  _163
REMARK   63  A    between atoms: _163  and  _164
REMARK   64  A    between atoms: _166  and  _168
REMARK   65  A    between atoms: _168  and  _169
REMARK   66  A    between atoms: _168  and  _171
REMARK   67  A    between atoms: _171  and  _172
REMARK   68  A    between atoms: _172  and  _173
REMARK   69  A    between atoms: _173  and  _174
REMARK   70  A    between atoms: _174  and  _175
REMARK   71  A    between atoms: _179  and  _181
REMARK   72  A    between atoms: _181  and  _182
REMARK   73  A    between atoms: _181  and  _184
REMARK   74  A    between atoms: _184  and  _185
REMARK   75  A    between atoms: _188  and  _190
REMARK   76  A    between atoms: _190  and  _191
REMARK   77  A    between atoms: _190  and  _193
REMARK   78  A    between atoms: _193  and  _194
REMARK   79  A    between atoms: _197  and  _199
REMARK   80  A    between atoms: _199  and  _200
REMARK   81  A    between atoms: _199  and  _202
REMARK   82  A    between atoms: _202  and  _203
REMARK   83  A    between atoms: _206  and  _208
REMARK   84  A    between atoms: _208  and  _209
REMARK   85  A    between atoms: _212  and  _214
REMARK   86  A    between atoms: _214  and  _215
REMARK   87  A    between atoms: _214  and  _217
REMARK   88  A    between atoms: _217  and  _218
REMARK   89  A    between atoms: _218  and  _219
REMARK   90  A    between atoms: _219  and  _220
REMARK   91  A    between atoms: _229  and  _231
REMARK   92  A    between atoms: _231  and  _232
REMARK   93  A    between atoms: _235  and  _237
REMARK   94  A    between atoms: _237  and  _238
REMARK   95  A    between atoms: _237  and  _240
REMARK   96  A    between atoms: _240  and  _241
REMARK   97  A    between atoms: _247  and  _249
REMARK   98  A    between atoms: _249  and  _250
REMARK   99  A    between atoms: _249  and  _252
REMARK  100  A    between atoms: _252  and  _253
REMARK  101  A    between atoms: _256  and  _258
REMARK  102  A    between atoms: _258  and  _259
REMARK  103  A    between atoms: _258  and  _261
REMARK  104  A    between atoms: _261  and  _262
REMARK  105  A    between atoms: _262  and  _263
REMARK  106  A    between atoms: _266  and  _268
REMARK  107  A    between atoms: _268  and  _269
REMARK  108  A    between atoms: _268  and  _271
REMARK  109  A    between atoms: _271  and  _272
REMARK  110  A    between atoms: _275  and  _277
REMARK  111  A    between atoms: _277  and  _278
REMARK  112  A    between atoms: _281  and  _283
REMARK  113  A    between atoms: _283  and  _284
REMARK  114  A    between atoms: _283  and  _286
REMARK  115  A    between atoms: _286  and  _287
REMARK  116  A    between atoms: _290  and  _292
REMARK  117  A    between atoms: _292  and  _293
REMARK  118  A    between atoms: _292  and  _295
REMARK  119  A    between atoms: _295  and  _296
REMARK  120  A    between atoms: _301  and  _303
REMARK  121  A    between atoms: _303  and  _304
REMARK  122  A    between atoms: _303  and  _306
REMARK  123  A    between atoms: _306  and  _307
REMARK  124  A    between atoms: _307  and  _308
REMARK  125  A    between atoms: _308  and  _309
REMARK  126  A    between atoms: _318  and  _320
REMARK  127  A    between atoms: _320  and  _321
REMARK  128  A    between atoms: _320  and  _323
REMARK  129  A    between atoms: _323  and  _324
REMARK  130  A    between atoms: _327  and  _329
REMARK  131  A    between atoms: _329  and  _330
REMARK  132  A    between atoms: _333  and  _334
REMARK  133  A    between atoms: _339  and  _341
REMARK  134  A    between atoms: _341  and  _342
REMARK  135  A    between atoms: _344  and  _346
REMARK  136  A    between atoms: _346  and  _347
REMARK  137  A    between atoms: _346  and  _349
REMARK  138  A    between atoms: _349  and  _350
REMARK  139  A    between atoms: _350  and  _351
REMARK  140  A    between atoms: _351  and  _352
REMARK  141  A    between atoms: _361  and  _363
REMARK  142  A    between atoms: _363  and  _364
REMARK  143  A    between atoms: _363  and  _366
REMARK  144  A    between atoms: _366  and  _367
REMARK  145  A    between atoms: _367  and  _368
REMARK  146  A    between atoms: _371  and  _373
REMARK  147  A    between atoms: _373  and  _374
REMARK  148  A    between atoms: _373  and  _376
REMARK  149  A    between atoms: _376  and  _377
REMARK  150  A    between atoms: _380  and  _382
REMARK  151  A    between atoms: _382  and  _383
REMARK  152  A    between atoms: _382  and  _385
REMARK  153  A    between atoms: _385  and  _386
REMARK  154  A    between atoms: _389  and  _391
REMARK  155  A    between atoms: _391  and  _392
REMARK  156  A    between atoms: _391  and  _394
REMARK  157  A    between atoms: _394  and  _395
REMARK  158  A    between atoms: _395  and  _396
REMARK  159  A    between atoms: _401  and  _403
REMARK  160  A    between atoms: _403  and  _404
REMARK  161  A    between atoms: _403  and  _406
REMARK  162  A    between atoms: _406  and  _407
REMARK  163  A    between atoms: _410  and  _412
REMARK  164  A    between atoms: _412  and  _413
REMARK  165  A    between atoms: _412  and  _415
REMARK  166  A    between atoms: _415  and  _416
REMARK  167  A    between atoms: _421  and  _423
REMARK  168  A    between atoms: _423  and  _424
REMARK  169  A    between atoms: _423  and  _426
REMARK  170  A    between atoms: _429  and  _431
REMARK  171  A    between atoms: _431  and  _432
REMARK  172  A    between atoms: _434  and  _436
REMARK  173  A    between atoms: _436  and  _437
REMARK  174  A    between atoms: _440  and  _442
REMARK  175  A    between atoms: _442  and  _443
REMARK  176  A    between atoms: _442  and  _445
REMARK  177  A    between atoms: _445  and  _446
REMARK  178  A    between atoms: _449  and  _451
REMARK  179  A    between atoms: _451  and  _452
REMARK  180  A    between atoms: _451  and  _454
REMARK  181  A    between atoms: _454  and  _455
REMARK  182  A    between atoms: _458  and  _460
REMARK  183  A    between atoms: _460  and  _461
REMARK  184  A    between atoms: _464  and  _466
REMARK  185  A    between atoms: _466  and  _467
REMARK  186  A    between atoms: _470  and  _472
REMARK  187  A    between atoms: _472  and  _473
REMARK  188  A    between atoms: _472  and  _475
REMARK  189  A    between atoms: _475  and  _476
REMARK  190  A    between atoms: _478  and  _480
REMARK  191  A    between atoms: _480  and  _481
REMARK  192  A    between atoms: _480  and  _483
REMARK  193  A    between atoms: _483  and  _484
REMARK  194  A    between atoms: _484  and  _485
REMARK  195  A    between atoms: _485  and  _486
REMARK  196  A    between atoms: _486  and  _487
REMARK  197  A    between atoms: _491  and  _493
REMARK  198  A    between atoms: _493  and  _494
REMARK  199  A    between atoms: _493  and  _496
REMARK  200  A    between atoms: _496  and  _497
REMARK  201  A    between atoms: _497  and  _498
REMARK  202  A    between atoms: _498  and  _499
REMARK  203  A    between atoms: _508  and  _510
REMARK  204  A    between atoms: _510  and  _511
REMARK  205  A    between atoms: _510  and  _513
REMARK  206  A    between atoms: _513  and  _514
REMARK  207  A    between atoms: _517  and  _519
REMARK  208  A    between atoms: _519  and  _520
REMARK  209  A    between atoms: _519  and  _522
REMARK  210  A    between atoms: _522  and  _523
REMARK  211  A    between atoms: _523  and  _524
REMARK  212  A    between atoms: _530  and  _531
REMARK  213  A    between atoms: _536  and  _538
REMARK  214  A    between atoms: _538  and  _539
REMARK  215  A    between atoms: _542  and  _544
REMARK  216  A    between atoms: _544  and  _545
REMARK  217  A    between atoms: _544  and  _547
REMARK  218  A    between atoms: _547  and  _548
REMARK  219  A    between atoms: _548  and  _549
REMARK  220  A    between atoms: _549  and  _550
REMARK  221  A    between atoms: _559  and  _561
REMARK  222  A    between atoms: _561  and  _562
REMARK  223  A    between atoms: _561  and  _564
REMARK  224  A    between atoms: _564  and  _565
REMARK  225  A    between atoms: _565  and  _566
REMARK  226  A    between atoms: _566  and  _567
REMARK  227  A    between atoms: _576  and  _578
REMARK  228  A    between atoms: _578  and  _579
REMARK  229  A    between atoms: _578  and  _581
REMARK  230  A    between atoms: _581  and  _582
REMARK  231  A    between atoms: _588  and  _590
REMARK  232  A    between atoms: _590  and  _591
REMARK  233  A    between atoms: _593  and  _595
REMARK  234  A    between atoms: _595  and  _596
REMARK  235  A    between atoms: _595  and  _598
REMARK  236  A    between atoms: _598  and  _599
REMARK  237  A    between atoms: _599  and  _600
REMARK  238  A    between atoms: _600  and  _601
REMARK                            x       y       z     vdW  Elec       q    Type
REMARK                         _______ _______ _______ _____ _____    ______ ____
ROOT
ATOM      1  O   HOH     1      14.579  48.059 -14.387  0.00  0.00    +0.000 OA
ENDROOT
TORSDOF 0
