REMARK  Name = ../refined-set-2016/4u54/4u54_pocket.pdb
REMARK  102 active torsions:
REMARK  status: ('A' for Active; 'I' for Inactive)
REMARK    1  A    between atoms: _1  and  _3
REMARK    2  A    between atoms: _3  and  _4
REMARK    3  A    between atoms: _3  and  _6
REMARK    4  A    between atoms: _9  and  _11
REMARK    5  A    between atoms: _11  and  _12
REMARK    6  A    between atoms: _11  and  _14
REMARK    7  A    between atoms: _14  and  _15
REMARK    8  A    between atoms: _18  and  _20
REMARK    9  A    between atoms: _20  and  _21
REMARK   10  A    between atoms: _20  and  _23
REMARK   11  A    between atoms: _23  and  _24
REMARK   12  A    between atoms: _24  and  _25
REMARK   13  A    between atoms: _25  and  _26
REMARK   14  A    between atoms: _26  and  _27
REMARK   15  A    between atoms: _31  and  _33
REMARK   16  A    between atoms: _33  and  _34
REMARK   17  A    between atoms: _33  and  _36
REMARK   18  A    between atoms: _36  and  _37
REMARK   19  A    between atoms: _40  and  _42
REMARK   20  A    between atoms: _42  and  _43
REMARK   21  A    between atoms: _42  and  _45
REMARK   22  A    between atoms: _45  and  _46
REMARK   23  A    between atoms: _56  and  _58
REMARK   24  A    between atoms: _58  and  _59
REMARK   25  A    between atoms: _58  and  _61
REMARK   26  A    between atoms: _61  and  _62
REMARK   27  A    between atoms: _65  and  _67
REMARK   28  A    between atoms: _67  and  _68
REMARK   29  A    between atoms: _67  and  _70
REMARK   30  A    between atoms: _70  and  _71
REMARK   31  A    between atoms: _71  and  _72
REMARK   32  A    between atoms: _74  and  _76
REMARK   33  A    between atoms: _76  and  _77
REMARK   34  A    between atoms: _76  and  _79
REMARK   35  A    between atoms: _79  and  _80
REMARK   36  A    between atoms: _82  and  _84
REMARK   37  A    between atoms: _84  and  _85
REMARK   38  A    between atoms: _84  and  _87
REMARK   39  A    between atoms: _87  and  _88
REMARK   40  A    between atoms: _93  and  _95
REMARK   41  A    between atoms: _95  and  _96
REMARK   42  A    between atoms: _95  and  _98
REMARK   43  A    between atoms: _98  and  _99
REMARK   44  A    between atoms: _102  and  _104
REMARK   45  A    between atoms: _104  and  _105
REMARK   46  A    between atoms: _104  and  _107
REMARK   47  A    between atoms: _107  and  _108
REMARK   48  A    between atoms: _111  and  _113
REMARK   49  A    between atoms: _113  and  _114
REMARK   50  A    between atoms: _117  and  _119
REMARK   51  A    between atoms: _119  and  _120
REMARK   52  A    between atoms: _122  and  _124
REMARK   53  A    between atoms: _124  and  _125
REMARK   54  A    between atoms: _124  and  _127
REMARK   55  A    between atoms: _127  and  _128
REMARK   56  A    between atoms: _128  and  _129
REMARK   57  A    between atoms: _129  and  _130
REMARK   58  A    between atoms: _130  and  _131
REMARK   59  A    between atoms: _135  and  _137
REMARK   60  A    between atoms: _137  and  _138
REMARK   61  A    between atoms: _137  and  _140
REMARK   62  A    between atoms: _140  and  _141
REMARK   63  A    between atoms: _141  and  _142
REMARK   64  A    between atoms: _142  and  _143
REMARK   65  A    between atoms: _143  and  _144
REMARK   66  A    between atoms: _148  and  _150
REMARK   67  A    between atoms: _150  and  _151
REMARK   68  A    between atoms: _150  and  _153
REMARK   69  A    between atoms: _153  and  _154
REMARK   70  A    between atoms: _154  and  _155
REMARK   71  A    between atoms: _158  and  _160
REMARK   72  A    between atoms: _160  and  _161
REMARK   73  A    between atoms: _164  and  _166
REMARK   74  A    between atoms: _166  and  _167
REMARK   75  A    between atoms: _170  and  _172
REMARK   76  A    between atoms: _172  and  _173
REMARK   77  A    between atoms: _172  and  _175
REMARK   78  A    between atoms: _175  and  _176
REMARK   79  A    between atoms: _186  and  _188
REMARK   80  A    between atoms: _188  and  _189
REMARK   81  A    between atoms: _192  and  _194
REMARK   82  A    between atoms: _194  and  _195
REMARK   83  A    between atoms: _194  and  _197
REMARK   84  A    between atoms: _197  and  _198
REMARK   85  A    between atoms: _201  and  _203
REMARK   86  A    between atoms: _203  and  _204
REMARK   87  A    between atoms: _203  and  _206
REMARK   88  A    between atoms: _206  and  _207
REMARK   89  A    between atoms: _212  and  _214
REMARK   90  A    between atoms: _214  and  _215
REMARK   91  A    between atoms: _214  and  _217
REMARK   92  A    between atoms: _217  and  _218
REMARK   93  A    between atoms: _220  and  _222
REMARK   94  A    between atoms: _222  and  _223
REMARK   95  A    between atoms: _222  and  _225
REMARK   96  A    between atoms: _225  and  _226
REMARK   97  A    between atoms: _226  and  _227
REMARK   98  A    between atoms: _227  and  _228
REMARK   99  A    between atoms: _228  and  _229
REMARK  100  A    between atoms: _233  and  _235
REMARK  101  A    between atoms: _235  and  _236
REMARK  102  A    between atoms: _235  and  _238
REMARK                            x       y       z     vdW  Elec       q    Type
REMARK                         _______ _______ _______ _____ _____    ______ ____
ROOT
ATOM      1  C   VAL A   1       0.087 127.087  -2.109  0.00  0.00    +0.238 C 
ATOM      2  N   THR A   2      -0.816 126.115  -2.075  0.00  0.00    -0.296 N 
ATOM      3  H   THR A   2      -0.719 125.336  -1.392  0.00  0.00    +0.150 HD
ATOM      4  O   VAL A   1       0.130 127.899  -3.035  0.00  0.00    -0.274 OA
ENDROOT
BRANCH   1   5
ATOM      5  CA  VAL A   1       1.083 127.181  -0.930  0.00  0.00    +0.145 C 
BRANCH   5   6
ATOM      6  CB  VAL A   1       2.527 127.350  -1.504  0.00  0.00    +0.025 C 
ATOM      7  CG2 VAL A   1       3.536 127.628  -0.377  0.00  0.00    +0.002 C 
ATOM      8  CG1 VAL A   1       2.943 126.144  -2.373  0.00  0.00    +0.002 C 
ENDBRANCH   5   6
BRANCH   5   9
ATOM      9  N   VAL A   1       0.983 126.056   0.020  0.00  0.00    -0.238 NA
ATOM     10  H   VAL A   1       1.631 125.246  -0.054  0.00  0.00    +0.142 HD
ENDBRANCH   5   9
ENDBRANCH   1   5
BRANCH   2  11
ATOM     11  CA  THR A   2      -1.949 126.142  -3.001  0.00  0.00    +0.164 C 
BRANCH  11  12
ATOM     12  C   THR A   2      -3.100 126.959  -2.399  0.00  0.00    +0.229 C 
ATOM     13  O   THR A   2      -4.130 127.181  -3.046  0.00  0.00    -0.286 OA
ENDBRANCH  11  12
BRANCH  11  14
ATOM     14  CB  THR A   2      -2.473 124.735  -3.339  0.00  0.00    +0.136 C 
ATOM     15  CG2 THR A   2      -1.369 123.870  -3.948  0.00  0.00    +0.034 C 
BRANCH  14  16
ATOM     16  OG1 THR A   2      -2.993 124.123  -2.149  0.00  0.00    -0.382 OA
ATOM     17  HG1 THR A   2      -2.273 124.055  -1.473  0.00  0.00    +0.210 HD
ENDBRANCH  14  16
ENDBRANCH  11  14
ENDBRANCH   2  11
TORSDOF 7
REMARK  Name = ../refined-set-2016/4u54/4u54_pocket.pdb
REMARK  102 active torsions:
REMARK  status: ('A' for Active; 'I' for Inactive)
REMARK    1  A    between atoms: _1  and  _3
REMARK    2  A    between atoms: _3  and  _4
REMARK    3  A    between atoms: _3  and  _6
REMARK    4  A    between atoms: _9  and  _11
REMARK    5  A    between atoms: _11  and  _12
REMARK    6  A    between atoms: _11  and  _14
REMARK    7  A    between atoms: _14  and  _15
REMARK    8  A    between atoms: _18  and  _20
REMARK    9  A    between atoms: _20  and  _21
REMARK   10  A    between atoms: _20  and  _23
REMARK   11  A    between atoms: _23  and  _24
REMARK   12  A    between atoms: _24  and  _25
REMARK   13  A    between atoms: _25  and  _26
REMARK   14  A    between atoms: _26  and  _27
REMARK   15  A    between atoms: _31  and  _33
REMARK   16  A    between atoms: _33  and  _34
REMARK   17  A    between atoms: _33  and  _36
REMARK   18  A    between atoms: _36  and  _37
REMARK   19  A    between atoms: _40  and  _42
REMARK   20  A    between atoms: _42  and  _43
REMARK   21  A    between atoms: _42  and  _45
REMARK   22  A    between atoms: _45  and  _46
REMARK   23  A    between atoms: _56  and  _58
REMARK   24  A    between atoms: _58  and  _59
REMARK   25  A    between atoms: _58  and  _61
REMARK   26  A    between atoms: _61  and  _62
REMARK   27  A    between atoms: _65  and  _67
REMARK   28  A    between atoms: _67  and  _68
REMARK   29  A    between atoms: _67  and  _70
REMARK   30  A    between atoms: _70  and  _71
REMARK   31  A    between atoms: _71  and  _72
REMARK   32  A    between atoms: _74  and  _76
REMARK   33  A    between atoms: _76  and  _77
REMARK   34  A    between atoms: _76  and  _79
REMARK   35  A    between atoms: _79  and  _80
REMARK   36  A    between atoms: _82  and  _84
REMARK   37  A    between atoms: _84  and  _85
REMARK   38  A    between atoms: _84  and  _87
REMARK   39  A    between atoms: _87  and  _88
REMARK   40  A    between atoms: _93  and  _95
REMARK   41  A    between atoms: _95  and  _96
REMARK   42  A    between atoms: _95  and  _98
REMARK   43  A    between atoms: _98  and  _99
REMARK   44  A    between atoms: _102  and  _104
REMARK   45  A    between atoms: _104  and  _105
REMARK   46  A    between atoms: _104  and  _107
REMARK   47  A    between atoms: _107  and  _108
REMARK   48  A    between atoms: _111  and  _113
REMARK   49  A    between atoms: _113  and  _114
REMARK   50  A    between atoms: _117  and  _119
REMARK   51  A    between atoms: _119  and  _120
REMARK   52  A    between atoms: _122  and  _124
REMARK   53  A    between atoms: _124  and  _125
REMARK   54  A    between atoms: _124  and  _127
REMARK   55  A    between atoms: _127  and  _128
REMARK   56  A    between atoms: _128  and  _129
REMARK   57  A    between atoms: _129  and  _130
REMARK   58  A    between atoms: _130  and  _131
REMARK   59  A    between atoms: _135  and  _137
REMARK   60  A    between atoms: _137  and  _138
REMARK   61  A    between atoms: _137  and  _140
REMARK   62  A    between atoms: _140  and  _141
REMARK   63  A    between atoms: _141  and  _142
REMARK   64  A    between atoms: _142  and  _143
REMARK   65  A    between atoms: _143  and  _144
REMARK   66  A    between atoms: _148  and  _150
REMARK   67  A    between atoms: _150  and  _151
REMARK   68  A    between atoms: _150  and  _153
REMARK   69  A    between atoms: _153  and  _154
REMARK   70  A    between atoms: _154  and  _155
REMARK   71  A    between atoms: _158  and  _160
REMARK   72  A    between atoms: _160  and  _161
REMARK   73  A    between atoms: _164  and  _166
REMARK   74  A    between atoms: _166  and  _167
REMARK   75  A    between atoms: _170  and  _172
REMARK   76  A    between atoms: _172  and  _173
REMARK   77  A    between atoms: _172  and  _175
REMARK   78  A    between atoms: _175  and  _176
REMARK   79  A    between atoms: _186  and  _188
REMARK   80  A    between atoms: _188  and  _189
REMARK   81  A    between atoms: _192  and  _194
REMARK   82  A    between atoms: _194  and  _195
REMARK   83  A    between atoms: _194  and  _197
REMARK   84  A    between atoms: _197  and  _198
REMARK   85  A    between atoms: _201  and  _203
REMARK   86  A    between atoms: _203  and  _204
REMARK   87  A    between atoms: _203  and  _206
REMARK   88  A    between atoms: _206  and  _207
REMARK   89  A    between atoms: _212  and  _214
REMARK   90  A    between atoms: _214  and  _215
REMARK   91  A    between atoms: _214  and  _217
REMARK   92  A    between atoms: _217  and  _218
REMARK   93  A    between atoms: _220  and  _222
REMARK   94  A    between atoms: _222  and  _223
REMARK   95  A    between atoms: _222  and  _225
REMARK   96  A    between atoms: _225  and  _226
REMARK   97  A    between atoms: _226  and  _227
REMARK   98  A    between atoms: _227  and  _228
REMARK   99  A    between atoms: _228  and  _229
REMARK  100  A    between atoms: _233  and  _235
REMARK  101  A    between atoms: _235  and  _236
REMARK  102  A    between atoms: _235  and  _238
REMARK                            x       y       z     vdW  Elec       q    Type
REMARK                         _______ _______ _______ _____ _____    ______ ____
ROOT
ATOM      1  CG  LYS A   1       7.398 116.162 -10.128  0.00  0.00    -0.000 C 
ENDROOT
BRANCH   1   2
ATOM      2  CB  LYS A   1       8.787 116.078  -9.501  0.00  0.00    +0.025 C 
BRANCH   2   3
ATOM      3  CA  LYS A   1       9.421 117.431  -9.156  0.00  0.00    +0.133 C 
BRANCH   3   4
ATOM      4  N   LYS A   1      10.749 117.235  -8.580  0.00  0.00    -0.239 NA
ATOM      5  H   LYS A   1      11.099 116.267  -8.433  0.00  0.00    +0.142 HD
ENDBRANCH   3   4
BRANCH   3   6
ATOM      6  C   LYS A   1       8.510 118.227  -8.207  0.00  0.00    +0.224 C 
ATOM      7  O   LYS A   1       7.879 119.209  -8.611  0.00  0.00    -0.287 OA
ENDBRANCH   3   6
ENDBRANCH   2   3
ENDBRANCH   1   2
BRANCH   1   8
ATOM      8  CD  LYS A   1       6.826 114.766 -10.308  0.00  0.00    -0.024 C 
BRANCH   8   9
ATOM      9  CE  LYS A   1       5.329 114.710 -10.012  0.00  0.00    -0.086 C 
BRANCH   9  10
ATOM     10  NZ  LYS A   1       4.544 115.744 -10.772  0.00  0.00    +0.380 N 
ATOM     11  HZ1 LYS A   1       4.883 116.693 -10.515  0.00  0.00    -0.089 HD
ATOM     12  HZ2 LYS A   1       3.536 115.658 -10.531  0.00  0.00    -0.089 HD
ATOM     13  HZ3 LYS A   1       4.672 115.593 -11.793  0.00  0.00    -0.089 HD
ENDBRANCH   9  10
ENDBRANCH   8   9
ENDBRANCH   1   8
TORSDOF 7
REMARK  Name = ../refined-set-2016/4u54/4u54_pocket.pdb
REMARK  102 active torsions:
REMARK  status: ('A' for Active; 'I' for Inactive)
REMARK    1  A    between atoms: _1  and  _3
REMARK    2  A    between atoms: _3  and  _4
REMARK    3  A    between atoms: _3  and  _6
REMARK    4  A    between atoms: _9  and  _11
REMARK    5  A    between atoms: _11  and  _12
REMARK    6  A    between atoms: _11  and  _14
REMARK    7  A    between atoms: _14  and  _15
REMARK    8  A    between atoms: _18  and  _20
REMARK    9  A    between atoms: _20  and  _21
REMARK   10  A    between atoms: _20  and  _23
REMARK   11  A    between atoms: _23  and  _24
REMARK   12  A    between atoms: _24  and  _25
REMARK   13  A    between atoms: _25  and  _26
REMARK   14  A    between atoms: _26  and  _27
REMARK   15  A    between atoms: _31  and  _33
REMARK   16  A    between atoms: _33  and  _34
REMARK   17  A    between atoms: _33  and  _36
REMARK   18  A    between atoms: _36  and  _37
REMARK   19  A    between atoms: _40  and  _42
REMARK   20  A    between atoms: _42  and  _43
REMARK   21  A    between atoms: _42  and  _45
REMARK   22  A    between atoms: _45  and  _46
REMARK   23  A    between atoms: _56  and  _58
REMARK   24  A    between atoms: _58  and  _59
REMARK   25  A    between atoms: _58  and  _61
REMARK   26  A    between atoms: _61  and  _62
REMARK   27  A    between atoms: _65  and  _67
REMARK   28  A    between atoms: _67  and  _68
REMARK   29  A    between atoms: _67  and  _70
REMARK   30  A    between atoms: _70  and  _71
REMARK   31  A    between atoms: _71  and  _72
REMARK   32  A    between atoms: _74  and  _76
REMARK   33  A    between atoms: _76  and  _77
REMARK   34  A    between atoms: _76  and  _79
REMARK   35  A    between atoms: _79  and  _80
REMARK   36  A    between atoms: _82  and  _84
REMARK   37  A    between atoms: _84  and  _85
REMARK   38  A    between atoms: _84  and  _87
REMARK   39  A    between atoms: _87  and  _88
REMARK   40  A    between atoms: _93  and  _95
REMARK   41  A    between atoms: _95  and  _96
REMARK   42  A    between atoms: _95  and  _98
REMARK   43  A    between atoms: _98  and  _99
REMARK   44  A    between atoms: _102  and  _104
REMARK   45  A    between atoms: _104  and  _105
REMARK   46  A    between atoms: _104  and  _107
REMARK   47  A    between atoms: _107  and  _108
REMARK   48  A    between atoms: _111  and  _113
REMARK   49  A    between atoms: _113  and  _114
REMARK   50  A    between atoms: _117  and  _119
REMARK   51  A    between atoms: _119  and  _120
REMARK   52  A    between atoms: _122  and  _124
REMARK   53  A    between atoms: _124  and  _125
REMARK   54  A    between atoms: _124  and  _127
REMARK   55  A    between atoms: _127  and  _128
REMARK   56  A    between atoms: _128  and  _129
REMARK   57  A    between atoms: _129  and  _130
REMARK   58  A    between atoms: _130  and  _131
REMARK   59  A    between atoms: _135  and  _137
REMARK   60  A    between atoms: _137  and  _138
REMARK   61  A    between atoms: _137  and  _140
REMARK   62  A    between atoms: _140  and  _141
REMARK   63  A    between atoms: _141  and  _142
REMARK   64  A    between atoms: _142  and  _143
REMARK   65  A    between atoms: _143  and  _144
REMARK   66  A    between atoms: _148  and  _150
REMARK   67  A    between atoms: _150  and  _151
REMARK   68  A    between atoms: _150  and  _153
REMARK   69  A    between atoms: _153  and  _154
REMARK   70  A    between atoms: _154  and  _155
REMARK   71  A    between atoms: _158  and  _160
REMARK   72  A    between atoms: _160  and  _161
REMARK   73  A    between atoms: _164  and  _166
REMARK   74  A    between atoms: _166  and  _167
REMARK   75  A    between atoms: _170  and  _172
REMARK   76  A    between atoms: _172  and  _173
REMARK   77  A    between atoms: _172  and  _175
REMARK   78  A    between atoms: _175  and  _176
REMARK   79  A    between atoms: _186  and  _188
REMARK   80  A    between atoms: _188  and  _189
REMARK   81  A    between atoms: _192  and  _194
REMARK   82  A    between atoms: _194  and  _195
REMARK   83  A    between atoms: _194  and  _197
REMARK   84  A    between atoms: _197  and  _198
REMARK   85  A    between atoms: _201  and  _203
REMARK   86  A    between atoms: _203  and  _204
REMARK   87  A    between atoms: _203  and  _206
REMARK   88  A    between atoms: _206  and  _207
REMARK   89  A    between atoms: _212  and  _214
REMARK   90  A    between atoms: _214  and  _215
REMARK   91  A    between atoms: _214  and  _217
REMARK   92  A    between atoms: _217  and  _218
REMARK   93  A    between atoms: _220  and  _222
REMARK   94  A    between atoms: _222  and  _223
REMARK   95  A    between atoms: _222  and  _225
REMARK   96  A    between atoms: _225  and  _226
REMARK   97  A    between atoms: _226  and  _227
REMARK   98  A    between atoms: _227  and  _228
REMARK   99  A    between atoms: _228  and  _229
REMARK  100  A    between atoms: _233  and  _235
REMARK  101  A    between atoms: _235  and  _236
REMARK  102  A    between atoms: _235  and  _238
REMARK                            x       y       z     vdW  Elec       q    Type
REMARK                         _______ _______ _______ _____ _____    ______ ____
ROOT
ATOM      1  CA  SER A   5       4.836 127.132  -9.595  0.00  0.00    +0.178 C 
ENDROOT
BRANCH   1   2
ATOM      2  C   SER A   5       3.618 127.745  -8.902  0.00  0.00    +0.243 C 
ATOM      3  N   ASN A   6       3.361 127.319  -7.675  0.00  0.00    -0.297 N 
ATOM      4  H   ASN A   6       3.930 126.550  -7.267  0.00  0.00    +0.150 HD
ATOM      5  O   SER A   5       2.922 128.589  -9.470  0.00  0.00    -0.273 OA
BRANCH   3   6
ATOM      6  CA  ASN A   6       2.293 127.915  -6.893  0.00  0.00    +0.158 C 
BRANCH   6   7
ATOM      7  C   ASN A   6       2.748 129.215  -6.247  0.00  0.00    +0.241 C 
ATOM      8  N   ILE A   7       4.040 129.320  -5.976  0.00  0.00    -0.297 N 
ATOM      9  H   ILE A   7       4.681 128.525  -6.172  0.00  0.00    +0.150 HD
ATOM     10  O   ASN A   6       1.948 130.118  -6.012  0.00  0.00    -0.273 OA
BRANCH   8  11
ATOM     11  CA  ILE A   7       4.555 130.544  -5.407  0.00  0.00    +0.149 C 
BRANCH  11  12
ATOM     12  C   ILE A   7       4.713 131.617  -6.495  0.00  0.00    +0.241 C 
ATOM     13  O   ILE A   7       4.507 132.794  -6.228  0.00  0.00    -0.273 OA
ATOM     14  N   THR A   8       5.038 131.228  -7.728  0.00  0.00    -0.295 N 
ATOM     15  H   THR A   8       5.222 130.226  -7.938  0.00  0.00    +0.150 HD
BRANCH  14  16
ATOM     16  CA  THR A   8       5.130 132.241  -8.780  0.00  0.00    +0.176 C 
BRANCH  16  17
ATOM     17  C   THR A   8       3.732 132.654  -9.252  0.00  0.00    +0.243 C 
ATOM     18  N   ALA A   9       2.702 131.967  -8.757  0.00  0.00    -0.297 N 
ATOM     19  H   ALA A   9       2.889 131.157  -8.132  0.00  0.00    +0.150 HD
ATOM     20  O   THR A   8       3.594 133.596 -10.035  0.00  0.00    -0.273 OA
BRANCH  18  21
ATOM     21  CA  ALA A   9       1.312 132.321  -9.069  0.00  0.00    +0.149 C 
ATOM     22  CB  ALA A   9       0.453 131.079  -9.183  0.00  0.00    +0.031 C 
BRANCH  21  23
ATOM     23  C   ALA A   9       0.724 133.269  -8.021  0.00  0.00    +0.241 C 
ATOM     24  N   GLY A  10       1.554 133.704  -7.074  0.00  0.00    -0.296 N 
ATOM     25  H   GLY A  10       2.544 133.385  -7.085  0.00  0.00    +0.150 HD
ATOM     26  O   ALA A   9      -0.463 133.594  -8.073  0.00  0.00    -0.273 OA
BRANCH  24  27
ATOM     27  CA  GLY A  10       1.117 134.611  -6.027  0.00  0.00    +0.163 C 
BRANCH  27  28
ATOM     28  C   GLY A  10       1.288 136.092  -6.374  0.00  0.00    +0.229 C 
ATOM     29  O   GLY A  10       1.268 136.487  -7.545  0.00  0.00    -0.286 OA
ENDBRANCH  27  28
ENDBRANCH  24  27
ENDBRANCH  21  23
ENDBRANCH  18  21
ENDBRANCH  16  17
BRANCH  16  30
ATOM     30  CB  THR A   8       5.977 131.790 -10.001  0.00  0.00    +0.137 C 
ATOM     31  CG2 THR A   8       7.434 131.545  -9.610  0.00  0.00    +0.034 C 
BRANCH  30  32
ATOM     32  OG1 THR A   8       5.412 130.623 -10.595  0.00  0.00    -0.382 OA
ATOM     33  HG1 THR A   8       5.963 130.349 -11.371  0.00  0.00    +0.210 HD
ENDBRANCH  30  32
ENDBRANCH  16  30
ENDBRANCH  14  16
ENDBRANCH  11  12
BRANCH  11  34
ATOM     34  CB  ILE A   7       5.876 130.297  -4.680  0.00  0.00    +0.027 C 
ATOM     35  CG2 ILE A   7       6.498 131.608  -4.199  0.00  0.00    +0.002 C 
BRANCH  34  36
ATOM     36  CG1 ILE A   7       5.631 129.378  -3.486  0.00  0.00    +0.002 C 
ATOM     37  CD1 ILE A   7       6.920 128.829  -2.902  0.00  0.00    +0.000 C 
ENDBRANCH  34  36
ENDBRANCH  11  34
ENDBRANCH   8  11
ENDBRANCH   6   7
BRANCH   6  38
ATOM     38  CB  ASN A   6       1.781 126.917  -5.849  0.00  0.00    +0.114 C 
BRANCH  38  39
ATOM     39  CG  ASN A   6       0.833 125.901  -6.461  0.00  0.00    +0.222 C 
ATOM     40  ND2 ASN A   6       1.086 124.620  -6.245  0.00  0.00    -0.329 N 
ATOM     41 HD21 ASN A   6       1.881 124.343  -5.634  0.00  0.00    +0.145 HD
ATOM     42 HD22 ASN A   6       0.490 123.891  -6.686  0.00  0.00    +0.145 HD
ATOM     43  OD1 ASN A   6      -0.089 126.280  -7.171  0.00  0.00    -0.275 OA
ENDBRANCH  38  39
ENDBRANCH   6  38
ENDBRANCH   3   6
ENDBRANCH   1   2
BRANCH   1  46
ATOM     44  C   MET A   4       6.551 127.546  -7.880  0.00  0.00    +0.241 C 
ATOM     45  O   MET A   4       6.364 128.769  -7.898  0.00  0.00    -0.273 OA
ATOM     46  N   SER A   5       5.866 126.685  -8.641  0.00  0.00    -0.295 N 
ATOM     47  H   SER A   5       6.067 125.668  -8.557  0.00  0.00    +0.150 HD
BRANCH  44  48
ATOM     48  CA  MET A   4       7.608 126.951  -6.951  0.00  0.00    +0.149 C 
BRANCH  48  51
ATOM     49  C   THR A   3       6.095 125.602  -5.585  0.00  0.00    +0.243 C 
ATOM     50  O   THR A   3       5.429 126.586  -5.259  0.00  0.00    -0.273 OA
ATOM     51  N   MET A   4       7.173 125.680  -6.369  0.00  0.00    -0.297 N 
ATOM     52  H   MET A   4       7.717 124.817  -6.571  0.00  0.00    +0.150 HD
BRANCH  49  53
ATOM     53  CA  THR A   3       5.711 124.211  -5.087  0.00  0.00    +0.176 C 
BRANCH  53  55
ATOM     54  C   TRP A   2       5.137 123.347  -7.320  0.00  0.00    +0.241 C 
ATOM     55  N   THR A   3       5.804 123.243  -6.173  0.00  0.00    -0.295 N 
ATOM     56  H   THR A   3       6.429 122.422  -6.044  0.00  0.00    +0.150 HD
ATOM     57  O   TRP A   2       4.303 124.227  -7.562  0.00  0.00    -0.273 OA
BRANCH  54  58
ATOM     58  CA  TRP A   2       5.446 122.259  -8.334  0.00  0.00    +0.153 C 
BRANCH  58  60
ATOM     59  C   THR A   1       7.726 123.055  -8.877  0.00  0.00    +0.241 C 
ATOM     60  N   TRP A   2       6.899 122.071  -8.522  0.00  0.00    -0.297 N 
ATOM     61  H   TRP A   2       7.297 121.123  -8.370  0.00  0.00    +0.150 HD
ATOM     62  O   THR A   1       7.331 124.171  -9.207  0.00  0.00    -0.274 OA
BRANCH  59  63
ATOM     63  CA  THR A   1       9.239 122.751  -8.834  0.00  0.00    +0.172 C 
BRANCH  63  64
ATOM     64  CB  THR A   1       9.730 122.101 -10.162  0.00  0.00    +0.135 C 
ATOM     65  CG2 THR A   1       9.636 123.073 -11.320  0.00  0.00    +0.034 C 
BRANCH  64  66
ATOM     66  OG1 THR A   1      11.100 121.714 -10.019  0.00  0.00    -0.383 OA
ATOM     67  HG1 THR A   1      11.182 121.061  -9.279  0.00  0.00    +0.210 HD
ENDBRANCH  64  66
ENDBRANCH  63  64
BRANCH  63  68
ATOM     68  N   THR A   1       9.568 121.908  -7.708  0.00  0.00    -0.236 NA
ATOM     69  H   THR A   1       9.855 120.923  -7.879  0.00  0.00    +0.142 HD
ENDBRANCH  63  68
ENDBRANCH  59  63
ENDBRANCH  58  60
BRANCH  58  70
ATOM     70  CB  TRP A   2       4.788 120.941  -7.885  0.00  0.00    +0.057 C 
BRANCH  70  71
ATOM     71  CG  TRP A   2       3.350 121.047  -7.378  0.00  0.00    -0.002 A 
ATOM     72  CD2 TRP A   2       2.865 120.661  -6.079  0.00  0.00    +0.013 A 
ATOM     73  CE3 TRP A   2       3.475 120.138  -4.930  0.00  0.00    +0.001 A 
ATOM     74  CZ3 TRP A   2       2.674 119.872  -3.803  0.00  0.00    +0.000 A 
ATOM     75  CH2 TRP A   2       1.293 120.131  -3.821  0.00  0.00    +0.001 A 
ATOM     76  CZ2 TRP A   2       0.675 120.645  -4.936  0.00  0.00    +0.017 A 
ATOM     77  CE2 TRP A   2       1.467 120.905  -6.061  0.00  0.00    +0.056 A 
ATOM     78  NE1 TRP A   2       1.116 121.410  -7.286  0.00  0.00    -0.352 N 
ATOM     79  HE1 TRP A   2       0.156 121.688  -7.573  0.00  0.00    +0.166 HD
ATOM     80  CD1 TRP A   2       2.247 121.490  -8.078  0.00  0.00    +0.068 A 
ENDBRANCH  70  71
ENDBRANCH  58  70
ENDBRANCH  54  58
ENDBRANCH  53  55
BRANCH  53  81
ATOM     81  CB  THR A   3       6.628 123.794  -3.883  0.00  0.00    +0.137 C 
ATOM     82  CG2 THR A   3       6.543 124.783  -2.757  0.00  0.00    +0.034 C 
BRANCH  81  83
ATOM     83  OG1 THR A   3       6.222 122.514  -3.381  0.00  0.00    -0.382 OA
ATOM     84  HG1 THR A   3       6.300 121.839  -4.101  0.00  0.00    +0.210 HD
ENDBRANCH  81  83
ENDBRANCH  53  81
ENDBRANCH  49  53
ENDBRANCH  48  51
BRANCH  48  85
ATOM     85  CB  MET A   4       8.932 126.782  -7.721  0.00  0.00    +0.041 C 
BRANCH  85  86
ATOM     86  CG  MET A   4      10.161 126.530  -6.836  0.00  0.00    +0.060 C 
BRANCH  86  87
ATOM     87  SD  MET A   4      10.400 127.800  -5.568  0.00  0.00    -0.139 S 
ATOM     88  CE  MET A   4      10.438 129.251  -6.615  0.00  0.00    +0.069 C 
ENDBRANCH  86  87
ENDBRANCH  85  86
ENDBRANCH  48  85
ENDBRANCH  44  48
ENDBRANCH   1  46
BRANCH   1  89
ATOM     89  CB  SER A   5       4.373 125.977 -10.493  0.00  0.00    +0.166 C 
BRANCH  89  90
ATOM     90  OG  SER A   5       3.547 125.073  -9.787  0.00  0.00    -0.380 OA
ATOM     91  H   SER A   5       4.051 124.695  -9.023  0.00  0.00    +0.211 HD
ENDBRANCH  89  90
ENDBRANCH   1  89
TORSDOF 37
REMARK  Name = ../refined-set-2016/4u54/4u54_pocket.pdb
REMARK  102 active torsions:
REMARK  status: ('A' for Active; 'I' for Inactive)
REMARK    1  A    between atoms: _1  and  _3
REMARK    2  A    between atoms: _3  and  _4
REMARK    3  A    between atoms: _3  and  _6
REMARK    4  A    between atoms: _9  and  _11
REMARK    5  A    between atoms: _11  and  _12
REMARK    6  A    between atoms: _11  and  _14
REMARK    7  A    between atoms: _14  and  _15
REMARK    8  A    between atoms: _18  and  _20
REMARK    9  A    between atoms: _20  and  _21
REMARK   10  A    between atoms: _20  and  _23
REMARK   11  A    between atoms: _23  and  _24
REMARK   12  A    between atoms: _24  and  _25
REMARK   13  A    between atoms: _25  and  _26
REMARK   14  A    between atoms: _26  and  _27
REMARK   15  A    between atoms: _31  and  _33
REMARK   16  A    between atoms: _33  and  _34
REMARK   17  A    between atoms: _33  and  _36
REMARK   18  A    between atoms: _36  and  _37
REMARK   19  A    between atoms: _40  and  _42
REMARK   20  A    between atoms: _42  and  _43
REMARK   21  A    between atoms: _42  and  _45
REMARK   22  A    between atoms: _45  and  _46
REMARK   23  A    between atoms: _56  and  _58
REMARK   24  A    between atoms: _58  and  _59
REMARK   25  A    between atoms: _58  and  _61
REMARK   26  A    between atoms: _61  and  _62
REMARK   27  A    between atoms: _65  and  _67
REMARK   28  A    between atoms: _67  and  _68
REMARK   29  A    between atoms: _67  and  _70
REMARK   30  A    between atoms: _70  and  _71
REMARK   31  A    between atoms: _71  and  _72
REMARK   32  A    between atoms: _74  and  _76
REMARK   33  A    between atoms: _76  and  _77
REMARK   34  A    between atoms: _76  and  _79
REMARK   35  A    between atoms: _79  and  _80
REMARK   36  A    between atoms: _82  and  _84
REMARK   37  A    between atoms: _84  and  _85
REMARK   38  A    between atoms: _84  and  _87
REMARK   39  A    between atoms: _87  and  _88
REMARK   40  A    between atoms: _93  and  _95
REMARK   41  A    between atoms: _95  and  _96
REMARK   42  A    between atoms: _95  and  _98
REMARK   43  A    between atoms: _98  and  _99
REMARK   44  A    between atoms: _102  and  _104
REMARK   45  A    between atoms: _104  and  _105
REMARK   46  A    between atoms: _104  and  _107
REMARK   47  A    between atoms: _107  and  _108
REMARK   48  A    between atoms: _111  and  _113
REMARK   49  A    between atoms: _113  and  _114
REMARK   50  A    between atoms: _117  and  _119
REMARK   51  A    between atoms: _119  and  _120
REMARK   52  A    between atoms: _122  and  _124
REMARK   53  A    between atoms: _124  and  _125
REMARK   54  A    between atoms: _124  and  _127
REMARK   55  A    between atoms: _127  and  _128
REMARK   56  A    between atoms: _128  and  _129
REMARK   57  A    between atoms: _129  and  _130
REMARK   58  A    between atoms: _130  and  _131
REMARK   59  A    between atoms: _135  and  _137
REMARK   60  A    between atoms: _137  and  _138
REMARK   61  A    between atoms: _137  and  _140
REMARK   62  A    between atoms: _140  and  _141
REMARK   63  A    between atoms: _141  and  _142
REMARK   64  A    between atoms: _142  and  _143
REMARK   65  A    between atoms: _143  and  _144
REMARK   66  A    between atoms: _148  and  _150
REMARK   67  A    between atoms: _150  and  _151
REMARK   68  A    between atoms: _150  and  _153
REMARK   69  A    between atoms: _153  and  _154
REMARK   70  A    between atoms: _154  and  _155
REMARK   71  A    between atoms: _158  and  _160
REMARK   72  A    between atoms: _160  and  _161
REMARK   73  A    between atoms: _164  and  _166
REMARK   74  A    between atoms: _166  and  _167
REMARK   75  A    between atoms: _170  and  _172
REMARK   76  A    between atoms: _172  and  _173
REMARK   77  A    between atoms: _172  and  _175
REMARK   78  A    between atoms: _175  and  _176
REMARK   79  A    between atoms: _186  and  _188
REMARK   80  A    between atoms: _188  and  _189
REMARK   81  A    between atoms: _192  and  _194
REMARK   82  A    between atoms: _194  and  _195
REMARK   83  A    between atoms: _194  and  _197
REMARK   84  A    between atoms: _197  and  _198
REMARK   85  A    between atoms: _201  and  _203
REMARK   86  A    between atoms: _203  and  _204
REMARK   87  A    between atoms: _203  and  _206
REMARK   88  A    between atoms: _206  and  _207
REMARK   89  A    between atoms: _212  and  _214
REMARK   90  A    between atoms: _214  and  _215
REMARK   91  A    between atoms: _214  and  _217
REMARK   92  A    between atoms: _217  and  _218
REMARK   93  A    between atoms: _220  and  _222
REMARK   94  A    between atoms: _222  and  _223
REMARK   95  A    between atoms: _222  and  _225
REMARK   96  A    between atoms: _225  and  _226
REMARK   97  A    between atoms: _226  and  _227
REMARK   98  A    between atoms: _227  and  _228
REMARK   99  A    between atoms: _228  and  _229
REMARK  100  A    between atoms: _233  and  _235
REMARK  101  A    between atoms: _235  and  _236
REMARK  102  A    between atoms: _235  and  _238
REMARK                            x       y       z     vdW  Elec       q    Type
REMARK                         _______ _______ _______ _____ _____    ______ ____
ROOT
ATOM      1  CG  LYS A   1       5.530 114.092 -15.101  0.00  0.00    -0.000 C 
ENDROOT
BRANCH   1   2
ATOM      2  CB  LYS A   1       6.867 114.715 -14.676  0.00  0.00    +0.025 C 
BRANCH   2   3
ATOM      3  CA  LYS A   1       7.351 115.872 -15.562  0.00  0.00    +0.133 C 
BRANCH   3   4
ATOM      4  N   LYS A   1       8.447 115.435 -16.421  0.00  0.00    -0.239 NA
ATOM      5  H   LYS A   1       8.883 114.505 -16.256  0.00  0.00    +0.142 HD
ENDBRANCH   3   4
BRANCH   3   6
ATOM      6  C   LYS A   1       7.774 117.072 -14.704  0.00  0.00    +0.224 C 
ATOM      7  O   LYS A   1       6.962 117.954 -14.399  0.00  0.00    -0.287 OA
ENDBRANCH   3   6
ENDBRANCH   2   3
ENDBRANCH   1   2
BRANCH   1   8
ATOM      8  CD  LYS A   1       5.581 113.511 -16.520  0.00  0.00    -0.024 C 
BRANCH   8   9
ATOM      9  CE  LYS A   1       4.221 112.937 -16.964  0.00  0.00    -0.086 C 
BRANCH   9  10
ATOM     10  NZ  LYS A   1       4.210 112.467 -18.395  0.00  0.00    +0.380 N 
ATOM     11  HZ1 LYS A   1       4.921 111.718 -18.518  0.00  0.00    -0.089 HD
ATOM     12  HZ2 LYS A   1       3.268 112.093 -18.629  0.00  0.00    -0.089 HD
ATOM     13  HZ3 LYS A   1       4.433 113.266 -19.023  0.00  0.00    -0.089 HD
ENDBRANCH   9  10
ENDBRANCH   8   9
ENDBRANCH   1   8
TORSDOF 7
REMARK  Name = ../refined-set-2016/4u54/4u54_pocket.pdb
REMARK  102 active torsions:
REMARK  status: ('A' for Active; 'I' for Inactive)
REMARK    1  A    between atoms: _1  and  _3
REMARK    2  A    between atoms: _3  and  _4
REMARK    3  A    between atoms: _3  and  _6
REMARK    4  A    between atoms: _9  and  _11
REMARK    5  A    between atoms: _11  and  _12
REMARK    6  A    between atoms: _11  and  _14
REMARK    7  A    between atoms: _14  and  _15
REMARK    8  A    between atoms: _18  and  _20
REMARK    9  A    between atoms: _20  and  _21
REMARK   10  A    between atoms: _20  and  _23
REMARK   11  A    between atoms: _23  and  _24
REMARK   12  A    between atoms: _24  and  _25
REMARK   13  A    between atoms: _25  and  _26
REMARK   14  A    between atoms: _26  and  _27
REMARK   15  A    between atoms: _31  and  _33
REMARK   16  A    between atoms: _33  and  _34
REMARK   17  A    between atoms: _33  and  _36
REMARK   18  A    between atoms: _36  and  _37
REMARK   19  A    between atoms: _40  and  _42
REMARK   20  A    between atoms: _42  and  _43
REMARK   21  A    between atoms: _42  and  _45
REMARK   22  A    between atoms: _45  and  _46
REMARK   23  A    between atoms: _56  and  _58
REMARK   24  A    between atoms: _58  and  _59
REMARK   25  A    between atoms: _58  and  _61
REMARK   26  A    between atoms: _61  and  _62
REMARK   27  A    between atoms: _65  and  _67
REMARK   28  A    between atoms: _67  and  _68
REMARK   29  A    between atoms: _67  and  _70
REMARK   30  A    between atoms: _70  and  _71
REMARK   31  A    between atoms: _71  and  _72
REMARK   32  A    between atoms: _74  and  _76
REMARK   33  A    between atoms: _76  and  _77
REMARK   34  A    between atoms: _76  and  _79
REMARK   35  A    between atoms: _79  and  _80
REMARK   36  A    between atoms: _82  and  _84
REMARK   37  A    between atoms: _84  and  _85
REMARK   38  A    between atoms: _84  and  _87
REMARK   39  A    between atoms: _87  and  _88
REMARK   40  A    between atoms: _93  and  _95
REMARK   41  A    between atoms: _95  and  _96
REMARK   42  A    between atoms: _95  and  _98
REMARK   43  A    between atoms: _98  and  _99
REMARK   44  A    between atoms: _102  and  _104
REMARK   45  A    between atoms: _104  and  _105
REMARK   46  A    between atoms: _104  and  _107
REMARK   47  A    between atoms: _107  and  _108
REMARK   48  A    between atoms: _111  and  _113
REMARK   49  A    between atoms: _113  and  _114
REMARK   50  A    between atoms: _117  and  _119
REMARK   51  A    between atoms: _119  and  _120
REMARK   52  A    between atoms: _122  and  _124
REMARK   53  A    between atoms: _124  and  _125
REMARK   54  A    between atoms: _124  and  _127
REMARK   55  A    between atoms: _127  and  _128
REMARK   56  A    between atoms: _128  and  _129
REMARK   57  A    between atoms: _129  and  _130
REMARK   58  A    between atoms: _130  and  _131
REMARK   59  A    between atoms: _135  and  _137
REMARK   60  A    between atoms: _137  and  _138
REMARK   61  A    between atoms: _137  and  _140
REMARK   62  A    between atoms: _140  and  _141
REMARK   63  A    between atoms: _141  and  _142
REMARK   64  A    between atoms: _142  and  _143
REMARK   65  A    between atoms: _143  and  _144
REMARK   66  A    between atoms: _148  and  _150
REMARK   67  A    between atoms: _150  and  _151
REMARK   68  A    between atoms: _150  and  _153
REMARK   69  A    between atoms: _153  and  _154
REMARK   70  A    between atoms: _154  and  _155
REMARK   71  A    between atoms: _158  and  _160
REMARK   72  A    between atoms: _160  and  _161
REMARK   73  A    between atoms: _164  and  _166
REMARK   74  A    between atoms: _166  and  _167
REMARK   75  A    between atoms: _170  and  _172
REMARK   76  A    between atoms: _172  and  _173
REMARK   77  A    between atoms: _172  and  _175
REMARK   78  A    between atoms: _175  and  _176
REMARK   79  A    between atoms: _186  and  _188
REMARK   80  A    between atoms: _188  and  _189
REMARK   81  A    between atoms: _192  and  _194
REMARK   82  A    between atoms: _194  and  _195
REMARK   83  A    between atoms: _194  and  _197
REMARK   84  A    between atoms: _197  and  _198
REMARK   85  A    between atoms: _201  and  _203
REMARK   86  A    between atoms: _203  and  _204
REMARK   87  A    between atoms: _203  and  _206
REMARK   88  A    between atoms: _206  and  _207
REMARK   89  A    between atoms: _212  and  _214
REMARK   90  A    between atoms: _214  and  _215
REMARK   91  A    between atoms: _214  and  _217
REMARK   92  A    between atoms: _217  and  _218
REMARK   93  A    between atoms: _220  and  _222
REMARK   94  A    between atoms: _222  and  _223
REMARK   95  A    between atoms: _222  and  _225
REMARK   96  A    between atoms: _225  and  _226
REMARK   97  A    between atoms: _226  and  _227
REMARK   98  A    between atoms: _227  and  _228
REMARK   99  A    between atoms: _228  and  _229
REMARK  100  A    between atoms: _233  and  _235
REMARK  101  A    between atoms: _235  and  _236
REMARK  102  A    between atoms: _235  and  _238
REMARK                            x       y       z     vdW  Elec       q    Type
REMARK                         _______ _______ _______ _____ _____    ______ ____
ROOT
ATOM      1  C   ALA A   3       8.285 125.410 -15.435  0.00  0.00    +0.241 C 
ATOM      2  O   ALA A   3       8.271 126.634 -15.246  0.00  0.00    -0.273 OA
ATOM      3  N   ALA A   4       7.768 124.828 -16.514  0.00  0.00    -0.297 N 
ATOM      4  H   ALA A   4       7.910 123.807 -16.655  0.00  0.00    +0.150 HD
ENDROOT
BRANCH   1   5
ATOM      5  CA  ALA A   3       8.909 124.481 -14.398  0.00  0.00    +0.149 C 
ATOM      6  CB  ALA A   3      10.378 124.168 -14.751  0.00  0.00    +0.031 C 
BRANCH   5   9
ATOM      7  C   GLU A   2       6.886 123.284 -13.759  0.00  0.00    +0.241 C 
ATOM      8  O   GLU A   2       6.349 124.316 -13.358  0.00  0.00    -0.273 OA
ATOM      9  N   ALA A   3       8.119 123.257 -14.275  0.00  0.00    -0.297 N 
ATOM     10  H   ALA A   3       8.522 122.353 -14.593  0.00  0.00    +0.150 HD
BRANCH   7  11
ATOM     11  CA  GLU A   2       6.150 121.954 -13.660  0.00  0.00    +0.149 C 
BRANCH  11  13
ATOM     12  C   LYS A   1       6.029 121.410 -16.032  0.00  0.00    +0.238 C 
ATOM     13  N   GLU A   2       6.438 121.083 -14.805  0.00  0.00    -0.297 N 
ATOM     14  H   GLU A   2       6.967 120.200 -14.658  0.00  0.00    +0.150 HD
ATOM     15  O   LYS A   1       5.408 122.443 -16.262  0.00  0.00    -0.274 OA
BRANCH  12  16
ATOM     16  CA  LYS A   1       6.414 120.467 -17.182  0.00  0.00    +0.145 C 
BRANCH  16  17
ATOM     17  N   LYS A   1       7.795 120.032 -17.010  0.00  0.00    -0.238 NA
ATOM     18  H   LYS A   1       7.996 119.018 -16.892  0.00  0.00    +0.142 HD
ENDBRANCH  16  17
BRANCH  16  19
ATOM     19  CB  LYS A   1       5.477 119.249 -17.254  0.00  0.00    +0.026 C 
BRANCH  19  20
ATOM     20  CG  LYS A   1       4.139 119.510 -17.921  0.00  0.00    -0.000 C 
BRANCH  20  21
ATOM     21  CD  LYS A   1       3.623 118.258 -18.645  0.00  0.00    -0.024 C 
BRANCH  21  22
ATOM     22  CE  LYS A   1       2.363 117.682 -17.993  0.00  0.00    -0.086 C 
BRANCH  22  23
ATOM     23  NZ  LYS A   1       1.278 117.405 -18.984  0.00  0.00    +0.380 N 
ATOM     24  HZ1 LYS A   1       0.449 117.017 -18.490  0.00  0.00    -0.089 HD
ATOM     25  HZ2 LYS A   1       1.014 118.289 -19.464  0.00  0.00    -0.089 HD
ATOM     26  HZ3 LYS A   1       1.618 116.717 -19.686  0.00  0.00    -0.089 HD
ENDBRANCH  22  23
ENDBRANCH  21  22
ENDBRANCH  20  21
ENDBRANCH  19  20
ENDBRANCH  16  19
ENDBRANCH  12  16
ENDBRANCH  11  13
BRANCH  11  27
ATOM     27  CB  GLU A   2       6.519 121.274 -12.333  0.00  0.00    +0.041 C 
BRANCH  27  28
ATOM     28  CG  GLU A   2       5.685 120.056 -11.992  0.00  0.00    +0.116 C 
BRANCH  28  29
ATOM     29  CD  GLU A   2       4.219 120.397 -11.746  0.00  0.00    +0.365 C 
ATOM     30  OE2 GLU A   2       3.930 121.548 -11.340  0.00  0.00    -0.246 OA
ATOM     31  OE1 GLU A   2       3.354 119.519 -11.974  0.00  0.00    -0.246 OA
ENDBRANCH  28  29
ENDBRANCH  27  28
ENDBRANCH  11  27
ENDBRANCH   7  11
ENDBRANCH   5   9
ENDBRANCH   1   5
BRANCH   3  32
ATOM     32  CA  ALA A   4       7.002 125.588 -17.513  0.00  0.00    +0.149 C 
ATOM     33  CB  ALA A   4       6.498 124.662 -18.618  0.00  0.00    +0.031 C 
BRANCH  32  34
ATOM     34  C   ALA A   4       5.830 126.333 -16.873  0.00  0.00    +0.241 C 
ATOM     35  N   TRP A   5       5.051 125.636 -16.046  0.00  0.00    -0.297 N 
ATOM     36  H   TRP A   5       5.202 124.612 -15.941  0.00  0.00    +0.150 HD
ATOM     37  O   ALA A   4       5.650 127.530 -17.111  0.00  0.00    -0.273 OA
BRANCH  35  38
ATOM     38  CA  TRP A   5       3.986 126.290 -15.284  0.00  0.00    +0.153 C 
BRANCH  38  39
ATOM     39  C   TRP A   5       4.541 127.399 -14.385  0.00  0.00    +0.241 C 
ATOM     40  N   ALA A   6       5.658 127.126 -13.707  0.00  0.00    -0.298 N 
ATOM     41  H   ALA A   6       6.111 126.196 -13.809  0.00  0.00    +0.150 HD
ATOM     42  O   TRP A   5       3.968 128.488 -14.310  0.00  0.00    -0.273 OA
BRANCH  40  43
ATOM     43  CA  ALA A   6       6.242 128.121 -12.829  0.00  0.00    +0.137 C 
ATOM     44  CB  ALA A   6       7.494 127.586 -12.158  0.00  0.00    +0.030 C 
BRANCH  43  45
ATOM     45  C   ALA A   6       6.549 129.382 -13.623  0.00  0.00    +0.227 C 
ATOM     46  O   ALA A   6       6.391 130.497 -13.116  0.00  0.00    -0.286 OA
ENDBRANCH  43  45
ENDBRANCH  40  43
ENDBRANCH  38  39
BRANCH  38  47
ATOM     47  CB  TRP A   5       3.214 125.280 -14.438  0.00  0.00    +0.057 C 
BRANCH  47  48
ATOM     48  CG  TRP A   5       2.109 124.532 -15.188  0.00  0.00    -0.002 A 
ATOM     49  CD1 TRP A   5       2.115 123.208 -15.573  0.00  0.00    +0.068 A 
ATOM     50  NE1 TRP A   5       0.936 122.893 -16.210  0.00  0.00    -0.352 N 
ATOM     51  CE2 TRP A   5       0.146 124.008 -16.257  0.00  0.00    +0.056 A 
ATOM     52  CZ2 TRP A   5      -1.128 124.183 -16.802  0.00  0.00    +0.017 A 
ATOM     53  CH2 TRP A   5      -1.693 125.425 -16.704  0.00  0.00    +0.001 A 
ATOM     54  CZ3 TRP A   5      -1.027 126.485 -16.084  0.00  0.00    +0.000 A 
ATOM     55  CE3 TRP A   5       0.241 126.318 -15.537  0.00  0.00    +0.001 A 
ATOM     56  HE1 TRP A   5       0.687 121.959 -16.593  0.00  0.00    +0.166 HD
ATOM     57  CD2 TRP A   5       0.845 125.061 -15.623  0.00  0.00    +0.013 A 
ENDBRANCH  47  48
ENDBRANCH  38  47
ENDBRANCH  35  38
ENDBRANCH  32  34
ENDBRANCH   3  32
TORSDOF 22
REMARK  Name = ../refined-set-2016/4u54/4u54_pocket.pdb
REMARK  102 active torsions:
REMARK  status: ('A' for Active; 'I' for Inactive)
REMARK    1  A    between atoms: _1  and  _3
REMARK    2  A    between atoms: _3  and  _4
REMARK    3  A    between atoms: _3  and  _6
REMARK    4  A    between atoms: _9  and  _11
REMARK    5  A    between atoms: _11  and  _12
REMARK    6  A    between atoms: _11  and  _14
REMARK    7  A    between atoms: _14  and  _15
REMARK    8  A    between atoms: _18  and  _20
REMARK    9  A    between atoms: _20  and  _21
REMARK   10  A    between atoms: _20  and  _23
REMARK   11  A    between atoms: _23  and  _24
REMARK   12  A    between atoms: _24  and  _25
REMARK   13  A    between atoms: _25  and  _26
REMARK   14  A    between atoms: _26  and  _27
REMARK   15  A    between atoms: _31  and  _33
REMARK   16  A    between atoms: _33  and  _34
REMARK   17  A    between atoms: _33  and  _36
REMARK   18  A    between atoms: _36  and  _37
REMARK   19  A    between atoms: _40  and  _42
REMARK   20  A    between atoms: _42  and  _43
REMARK   21  A    between atoms: _42  and  _45
REMARK   22  A    between atoms: _45  and  _46
REMARK   23  A    between atoms: _56  and  _58
REMARK   24  A    between atoms: _58  and  _59
REMARK   25  A    between atoms: _58  and  _61
REMARK   26  A    between atoms: _61  and  _62
REMARK   27  A    between atoms: _65  and  _67
REMARK   28  A    between atoms: _67  and  _68
REMARK   29  A    between atoms: _67  and  _70
REMARK   30  A    between atoms: _70  and  _71
REMARK   31  A    between atoms: _71  and  _72
REMARK   32  A    between atoms: _74  and  _76
REMARK   33  A    between atoms: _76  and  _77
REMARK   34  A    between atoms: _76  and  _79
REMARK   35  A    between atoms: _79  and  _80
REMARK   36  A    between atoms: _82  and  _84
REMARK   37  A    between atoms: _84  and  _85
REMARK   38  A    between atoms: _84  and  _87
REMARK   39  A    between atoms: _87  and  _88
REMARK   40  A    between atoms: _93  and  _95
REMARK   41  A    between atoms: _95  and  _96
REMARK   42  A    between atoms: _95  and  _98
REMARK   43  A    between atoms: _98  and  _99
REMARK   44  A    between atoms: _102  and  _104
REMARK   45  A    between atoms: _104  and  _105
REMARK   46  A    between atoms: _104  and  _107
REMARK   47  A    between atoms: _107  and  _108
REMARK   48  A    between atoms: _111  and  _113
REMARK   49  A    between atoms: _113  and  _114
REMARK   50  A    between atoms: _117  and  _119
REMARK   51  A    between atoms: _119  and  _120
REMARK   52  A    between atoms: _122  and  _124
REMARK   53  A    between atoms: _124  and  _125
REMARK   54  A    between atoms: _124  and  _127
REMARK   55  A    between atoms: _127  and  _128
REMARK   56  A    between atoms: _128  and  _129
REMARK   57  A    between atoms: _129  and  _130
REMARK   58  A    between atoms: _130  and  _131
REMARK   59  A    between atoms: _135  and  _137
REMARK   60  A    between atoms: _137  and  _138
REMARK   61  A    between atoms: _137  and  _140
REMARK   62  A    between atoms: _140  and  _141
REMARK   63  A    between atoms: _141  and  _142
REMARK   64  A    between atoms: _142  and  _143
REMARK   65  A    between atoms: _143  and  _144
REMARK   66  A    between atoms: _148  and  _150
REMARK   67  A    between atoms: _150  and  _151
REMARK   68  A    between atoms: _150  and  _153
REMARK   69  A    between atoms: _153  and  _154
REMARK   70  A    between atoms: _154  and  _155
REMARK   71  A    between atoms: _158  and  _160
REMARK   72  A    between atoms: _160  and  _161
REMARK   73  A    between atoms: _164  and  _166
REMARK   74  A    between atoms: _166  and  _167
REMARK   75  A    between atoms: _170  and  _172
REMARK   76  A    between atoms: _172  and  _173
REMARK   77  A    between atoms: _172  and  _175
REMARK   78  A    between atoms: _175  and  _176
REMARK   79  A    between atoms: _186  and  _188
REMARK   80  A    between atoms: _188  and  _189
REMARK   81  A    between atoms: _192  and  _194
REMARK   82  A    between atoms: _194  and  _195
REMARK   83  A    between atoms: _194  and  _197
REMARK   84  A    between atoms: _197  and  _198
REMARK   85  A    between atoms: _201  and  _203
REMARK   86  A    between atoms: _203  and  _204
REMARK   87  A    between atoms: _203  and  _206
REMARK   88  A    between atoms: _206  and  _207
REMARK   89  A    between atoms: _212  and  _214
REMARK   90  A    between atoms: _214  and  _215
REMARK   91  A    between atoms: _214  and  _217
REMARK   92  A    between atoms: _217  and  _218
REMARK   93  A    between atoms: _220  and  _222
REMARK   94  A    between atoms: _222  and  _223
REMARK   95  A    between atoms: _222  and  _225
REMARK   96  A    between atoms: _225  and  _226
REMARK   97  A    between atoms: _226  and  _227
REMARK   98  A    between atoms: _227  and  _228
REMARK   99  A    between atoms: _228  and  _229
REMARK  100  A    between atoms: _233  and  _235
REMARK  101  A    between atoms: _235  and  _236
REMARK  102  A    between atoms: _235  and  _238
REMARK                            x       y       z     vdW  Elec       q    Type
REMARK                         _______ _______ _______ _____ _____    ______ ____
ROOT
ATOM      1  C   THR A   1       3.188 131.767 -16.031  0.00  0.00    +0.241 C 
ATOM      2  N   ASN A   2       3.180 131.180 -14.835  0.00  0.00    -0.298 N 
ATOM      3  H   ASN A   2       3.583 130.227 -14.726  0.00  0.00    +0.150 HD
ATOM      4  O   THR A   1       2.683 132.875 -16.234  0.00  0.00    -0.274 OA
ENDROOT
BRANCH   1   5
ATOM      5  CA  THR A   1       3.869 131.016 -17.177  0.00  0.00    +0.172 C 
BRANCH   5   6
ATOM      6  N   THR A   1       5.112 130.386 -16.763  0.00  0.00    -0.236 NA
ATOM      7  H   THR A   1       5.234 129.361 -16.890  0.00  0.00    +0.142 HD
ENDBRANCH   5   6
BRANCH   5   8
ATOM      8  CB  THR A   1       2.880 129.997 -17.747  0.00  0.00    +0.135 C 
ATOM      9  CG2 THR A   1       1.724 130.707 -18.404  0.00  0.00    +0.034 C 
BRANCH   8  10
ATOM     10  OG1 THR A   1       3.542 129.207 -18.735  0.00  0.00    -0.383 OA
ATOM     11  HG1 THR A   1       4.306 128.734 -18.320  0.00  0.00    +0.210 HD
ENDBRANCH   8  10
ENDBRANCH   5   8
ENDBRANCH   1   5
BRANCH   2  12
ATOM     12  CA  ASN A   2       2.610 131.862 -13.673  0.00  0.00    +0.146 C 
BRANCH  12  13
ATOM     13  C   ASN A   2       3.403 133.121 -13.287  0.00  0.00    +0.227 C 
ATOM     14  O   ASN A   2       2.826 134.145 -12.895  0.00  0.00    -0.286 OA
ENDBRANCH  12  13
BRANCH  12  15
ATOM     15  CB  ASN A   2       2.526 130.917 -12.468  0.00  0.00    +0.112 C 
BRANCH  15  16
ATOM     16  CG  ASN A   2       1.510 129.787 -12.667  0.00  0.00    +0.222 C 
ATOM     17  ND2 ASN A   2       1.605 128.744 -11.831  0.00  0.00    -0.329 N 
ATOM     18 HD21 ASN A   2       2.339 128.733 -11.095  0.00  0.00    +0.145 HD
ATOM     19 HD22 ASN A   2       0.945 127.945 -11.919  0.00  0.00    +0.145 HD
ATOM     20  OD1 ASN A   2       0.656 129.848 -13.558  0.00  0.00    -0.275 OA
ENDBRANCH  15  16
ENDBRANCH  12  15
ENDBRANCH   2  12
TORSDOF 8
REMARK  Name = ../refined-set-2016/4u54/4u54_pocket.pdb
REMARK  102 active torsions:
REMARK  status: ('A' for Active; 'I' for Inactive)
REMARK    1  A    between atoms: _1  and  _3
REMARK    2  A    between atoms: _3  and  _4
REMARK    3  A    between atoms: _3  and  _6
REMARK    4  A    between atoms: _9  and  _11
REMARK    5  A    between atoms: _11  and  _12
REMARK    6  A    between atoms: _11  and  _14
REMARK    7  A    between atoms: _14  and  _15
REMARK    8  A    between atoms: _18  and  _20
REMARK    9  A    between atoms: _20  and  _21
REMARK   10  A    between atoms: _20  and  _23
REMARK   11  A    between atoms: _23  and  _24
REMARK   12  A    between atoms: _24  and  _25
REMARK   13  A    between atoms: _25  and  _26
REMARK   14  A    between atoms: _26  and  _27
REMARK   15  A    between atoms: _31  and  _33
REMARK   16  A    between atoms: _33  and  _34
REMARK   17  A    between atoms: _33  and  _36
REMARK   18  A    between atoms: _36  and  _37
REMARK   19  A    between atoms: _40  and  _42
REMARK   20  A    between atoms: _42  and  _43
REMARK   21  A    between atoms: _42  and  _45
REMARK   22  A    between atoms: _45  and  _46
REMARK   23  A    between atoms: _56  and  _58
REMARK   24  A    between atoms: _58  and  _59
REMARK   25  A    between atoms: _58  and  _61
REMARK   26  A    between atoms: _61  and  _62
REMARK   27  A    between atoms: _65  and  _67
REMARK   28  A    between atoms: _67  and  _68
REMARK   29  A    between atoms: _67  and  _70
REMARK   30  A    between atoms: _70  and  _71
REMARK   31  A    between atoms: _71  and  _72
REMARK   32  A    between atoms: _74  and  _76
REMARK   33  A    between atoms: _76  and  _77
REMARK   34  A    between atoms: _76  and  _79
REMARK   35  A    between atoms: _79  and  _80
REMARK   36  A    between atoms: _82  and  _84
REMARK   37  A    between atoms: _84  and  _85
REMARK   38  A    between atoms: _84  and  _87
REMARK   39  A    between atoms: _87  and  _88
REMARK   40  A    between atoms: _93  and  _95
REMARK   41  A    between atoms: _95  and  _96
REMARK   42  A    between atoms: _95  and  _98
REMARK   43  A    between atoms: _98  and  _99
REMARK   44  A    between atoms: _102  and  _104
REMARK   45  A    between atoms: _104  and  _105
REMARK   46  A    between atoms: _104  and  _107
REMARK   47  A    between atoms: _107  and  _108
REMARK   48  A    between atoms: _111  and  _113
REMARK   49  A    between atoms: _113  and  _114
REMARK   50  A    between atoms: _117  and  _119
REMARK   51  A    between atoms: _119  and  _120
REMARK   52  A    between atoms: _122  and  _124
REMARK   53  A    between atoms: _124  and  _125
REMARK   54  A    between atoms: _124  and  _127
REMARK   55  A    between atoms: _127  and  _128
REMARK   56  A    between atoms: _128  and  _129
REMARK   57  A    between atoms: _129  and  _130
REMARK   58  A    between atoms: _130  and  _131
REMARK   59  A    between atoms: _135  and  _137
REMARK   60  A    between atoms: _137  and  _138
REMARK   61  A    between atoms: _137  and  _140
REMARK   62  A    between atoms: _140  and  _141
REMARK   63  A    between atoms: _141  and  _142
REMARK   64  A    between atoms: _142  and  _143
REMARK   65  A    between atoms: _143  and  _144
REMARK   66  A    between atoms: _148  and  _150
REMARK   67  A    between atoms: _150  and  _151
REMARK   68  A    between atoms: _150  and  _153
REMARK   69  A    between atoms: _153  and  _154
REMARK   70  A    between atoms: _154  and  _155
REMARK   71  A    between atoms: _158  and  _160
REMARK   72  A    between atoms: _160  and  _161
REMARK   73  A    between atoms: _164  and  _166
REMARK   74  A    between atoms: _166  and  _167
REMARK   75  A    between atoms: _170  and  _172
REMARK   76  A    between atoms: _172  and  _173
REMARK   77  A    between atoms: _172  and  _175
REMARK   78  A    between atoms: _175  and  _176
REMARK   79  A    between atoms: _186  and  _188
REMARK   80  A    between atoms: _188  and  _189
REMARK   81  A    between atoms: _192  and  _194
REMARK   82  A    between atoms: _194  and  _195
REMARK   83  A    between atoms: _194  and  _197
REMARK   84  A    between atoms: _197  and  _198
REMARK   85  A    between atoms: _201  and  _203
REMARK   86  A    between atoms: _203  and  _204
REMARK   87  A    between atoms: _203  and  _206
REMARK   88  A    between atoms: _206  and  _207
REMARK   89  A    between atoms: _212  and  _214
REMARK   90  A    between atoms: _214  and  _215
REMARK   91  A    between atoms: _214  and  _217
REMARK   92  A    between atoms: _217  and  _218
REMARK   93  A    between atoms: _220  and  _222
REMARK   94  A    between atoms: _222  and  _223
REMARK   95  A    between atoms: _222  and  _225
REMARK   96  A    between atoms: _225  and  _226
REMARK   97  A    between atoms: _226  and  _227
REMARK   98  A    between atoms: _227  and  _228
REMARK   99  A    between atoms: _228  and  _229
REMARK  100  A    between atoms: _233  and  _235
REMARK  101  A    between atoms: _235  and  _236
REMARK  102  A    between atoms: _235  and  _238
REMARK                            x       y       z     vdW  Elec       q    Type
REMARK                         _______ _______ _______ _____ _____    ______ ____
ROOT
ATOM      1  CA  SER A   1       1.414 136.380 -16.137  0.00  0.00    +0.163 C 
ENDROOT
BRANCH   1   2
ATOM      2  N   SER A   1       2.761 135.810 -16.133  0.00  0.00    -0.237 NA
ATOM      3  H   SER A   1       2.907 134.818 -15.855  0.00  0.00    +0.142 HD
ENDBRANCH   1   2
BRANCH   1   4
ATOM      4  C   SER A   1       1.217 137.379 -14.996  0.00  0.00    +0.227 C 
ATOM      5  O   SER A   1       0.556 138.400 -15.173  0.00  0.00    -0.287 OA
ENDBRANCH   1   4
BRANCH   1   6
ATOM      6  CB  SER A   1       0.348 135.285 -16.055  0.00  0.00    +0.162 C 
BRANCH   6   7
ATOM      7  OG  SER A   1      -0.037 135.084 -14.714  0.00  0.00    -0.380 OA
ATOM      8  H   SER A   1       0.752 134.811 -14.183  0.00  0.00    +0.211 HD
ENDBRANCH   6   7
ENDBRANCH   1   6
TORSDOF 4
REMARK  Name = ../refined-set-2016/4u54/4u54_pocket.pdb
REMARK  102 active torsions:
REMARK  status: ('A' for Active; 'I' for Inactive)
REMARK    1  A    between atoms: _1  and  _3
REMARK    2  A    between atoms: _3  and  _4
REMARK    3  A    between atoms: _3  and  _6
REMARK    4  A    between atoms: _9  and  _11
REMARK    5  A    between atoms: _11  and  _12
REMARK    6  A    between atoms: _11  and  _14
REMARK    7  A    between atoms: _14  and  _15
REMARK    8  A    between atoms: _18  and  _20
REMARK    9  A    between atoms: _20  and  _21
REMARK   10  A    between atoms: _20  and  _23
REMARK   11  A    between atoms: _23  and  _24
REMARK   12  A    between atoms: _24  and  _25
REMARK   13  A    between atoms: _25  and  _26
REMARK   14  A    between atoms: _26  and  _27
REMARK   15  A    between atoms: _31  and  _33
REMARK   16  A    between atoms: _33  and  _34
REMARK   17  A    between atoms: _33  and  _36
REMARK   18  A    between atoms: _36  and  _37
REMARK   19  A    between atoms: _40  and  _42
REMARK   20  A    between atoms: _42  and  _43
REMARK   21  A    between atoms: _42  and  _45
REMARK   22  A    between atoms: _45  and  _46
REMARK   23  A    between atoms: _56  and  _58
REMARK   24  A    between atoms: _58  and  _59
REMARK   25  A    between atoms: _58  and  _61
REMARK   26  A    between atoms: _61  and  _62
REMARK   27  A    between atoms: _65  and  _67
REMARK   28  A    between atoms: _67  and  _68
REMARK   29  A    between atoms: _67  and  _70
REMARK   30  A    between atoms: _70  and  _71
REMARK   31  A    between atoms: _71  and  _72
REMARK   32  A    between atoms: _74  and  _76
REMARK   33  A    between atoms: _76  and  _77
REMARK   34  A    between atoms: _76  and  _79
REMARK   35  A    between atoms: _79  and  _80
REMARK   36  A    between atoms: _82  and  _84
REMARK   37  A    between atoms: _84  and  _85
REMARK   38  A    between atoms: _84  and  _87
REMARK   39  A    between atoms: _87  and  _88
REMARK   40  A    between atoms: _93  and  _95
REMARK   41  A    between atoms: _95  and  _96
REMARK   42  A    between atoms: _95  and  _98
REMARK   43  A    between atoms: _98  and  _99
REMARK   44  A    between atoms: _102  and  _104
REMARK   45  A    between atoms: _104  and  _105
REMARK   46  A    between atoms: _104  and  _107
REMARK   47  A    between atoms: _107  and  _108
REMARK   48  A    between atoms: _111  and  _113
REMARK   49  A    between atoms: _113  and  _114
REMARK   50  A    between atoms: _117  and  _119
REMARK   51  A    between atoms: _119  and  _120
REMARK   52  A    between atoms: _122  and  _124
REMARK   53  A    between atoms: _124  and  _125
REMARK   54  A    between atoms: _124  and  _127
REMARK   55  A    between atoms: _127  and  _128
REMARK   56  A    between atoms: _128  and  _129
REMARK   57  A    between atoms: _129  and  _130
REMARK   58  A    between atoms: _130  and  _131
REMARK   59  A    between atoms: _135  and  _137
REMARK   60  A    between atoms: _137  and  _138
REMARK   61  A    between atoms: _137  and  _140
REMARK   62  A    between atoms: _140  and  _141
REMARK   63  A    between atoms: _141  and  _142
REMARK   64  A    between atoms: _142  and  _143
REMARK   65  A    between atoms: _143  and  _144
REMARK   66  A    between atoms: _148  and  _150
REMARK   67  A    between atoms: _150  and  _151
REMARK   68  A    between atoms: _150  and  _153
REMARK   69  A    between atoms: _153  and  _154
REMARK   70  A    between atoms: _154  and  _155
REMARK   71  A    between atoms: _158  and  _160
REMARK   72  A    between atoms: _160  and  _161
REMARK   73  A    between atoms: _164  and  _166
REMARK   74  A    between atoms: _166  and  _167
REMARK   75  A    between atoms: _170  and  _172
REMARK   76  A    between atoms: _172  and  _173
REMARK   77  A    between atoms: _172  and  _175
REMARK   78  A    between atoms: _175  and  _176
REMARK   79  A    between atoms: _186  and  _188
REMARK   80  A    between atoms: _188  and  _189
REMARK   81  A    between atoms: _192  and  _194
REMARK   82  A    between atoms: _194  and  _195
REMARK   83  A    between atoms: _194  and  _197
REMARK   84  A    between atoms: _197  and  _198
REMARK   85  A    between atoms: _201  and  _203
REMARK   86  A    between atoms: _203  and  _204
REMARK   87  A    between atoms: _203  and  _206
REMARK   88  A    between atoms: _206  and  _207
REMARK   89  A    between atoms: _212  and  _214
REMARK   90  A    between atoms: _214  and  _215
REMARK   91  A    between atoms: _214  and  _217
REMARK   92  A    between atoms: _217  and  _218
REMARK   93  A    between atoms: _220  and  _222
REMARK   94  A    between atoms: _222  and  _223
REMARK   95  A    between atoms: _222  and  _225
REMARK   96  A    between atoms: _225  and  _226
REMARK   97  A    between atoms: _226  and  _227
REMARK   98  A    between atoms: _227  and  _228
REMARK   99  A    between atoms: _228  and  _229
REMARK  100  A    between atoms: _233  and  _235
REMARK  101  A    between atoms: _235  and  _236
REMARK  102  A    between atoms: _235  and  _238
REMARK                            x       y       z     vdW  Elec       q    Type
REMARK                         _______ _______ _______ _____ _____    ______ ____
ROOT
ATOM      1  CG  LYS A   1      -1.224 120.890 -20.430  0.00  0.00    -0.000 C 
ENDROOT
BRANCH   1   2
ATOM      2  CB  LYS A   1      -0.812 119.927 -21.535  0.00  0.00    +0.025 C 
BRANCH   2   3
ATOM      3  CA  LYS A   1      -0.306 120.621 -22.804  0.00  0.00    +0.133 C 
BRANCH   3   4
ATOM      4  N   LYS A   1      -0.048 119.635 -23.848  0.00  0.00    -0.239 NA
ATOM      5  H   LYS A   1      -0.010 118.625 -23.605  0.00  0.00    +0.142 HD
ENDBRANCH   3   4
BRANCH   3   6
ATOM      6  C   LYS A   1       0.916 121.503 -22.475  0.00  0.00    +0.224 C 
ATOM      7  O   LYS A   1       0.760 122.705 -22.233  0.00  0.00    -0.287 OA
ENDBRANCH   3   6
ENDBRANCH   2   3
ENDBRANCH   1   2
BRANCH   1   8
ATOM      8  CD  LYS A   1      -2.178 121.959 -20.954  0.00  0.00    -0.024 C 
BRANCH   8   9
ATOM      9  CE  LYS A   1      -3.386 122.138 -20.051  0.00  0.00    -0.086 C 
BRANCH   9  10
ATOM     10  NZ  LYS A   1      -2.993 122.179 -18.612  0.00  0.00    +0.380 N 
ATOM     11  HZ1 LYS A   1      -3.843 122.302 -18.025  0.00  0.00    -0.089 HD
ATOM     12  HZ2 LYS A   1      -2.521 121.288 -18.357  0.00  0.00    -0.089 HD
ATOM     13  HZ3 LYS A   1      -2.343 122.975 -18.454  0.00  0.00    -0.089 HD
ENDBRANCH   9  10
ENDBRANCH   8   9
ENDBRANCH   1   8
TORSDOF 7
REMARK  Name = ../refined-set-2016/4u54/4u54_pocket.pdb
REMARK  102 active torsions:
REMARK  status: ('A' for Active; 'I' for Inactive)
REMARK    1  A    between atoms: _1  and  _3
REMARK    2  A    between atoms: _3  and  _4
REMARK    3  A    between atoms: _3  and  _6
REMARK    4  A    between atoms: _9  and  _11
REMARK    5  A    between atoms: _11  and  _12
REMARK    6  A    between atoms: _11  and  _14
REMARK    7  A    between atoms: _14  and  _15
REMARK    8  A    between atoms: _18  and  _20
REMARK    9  A    between atoms: _20  and  _21
REMARK   10  A    between atoms: _20  and  _23
REMARK   11  A    between atoms: _23  and  _24
REMARK   12  A    between atoms: _24  and  _25
REMARK   13  A    between atoms: _25  and  _26
REMARK   14  A    between atoms: _26  and  _27
REMARK   15  A    between atoms: _31  and  _33
REMARK   16  A    between atoms: _33  and  _34
REMARK   17  A    between atoms: _33  and  _36
REMARK   18  A    between atoms: _36  and  _37
REMARK   19  A    between atoms: _40  and  _42
REMARK   20  A    between atoms: _42  and  _43
REMARK   21  A    between atoms: _42  and  _45
REMARK   22  A    between atoms: _45  and  _46
REMARK   23  A    between atoms: _56  and  _58
REMARK   24  A    between atoms: _58  and  _59
REMARK   25  A    between atoms: _58  and  _61
REMARK   26  A    between atoms: _61  and  _62
REMARK   27  A    between atoms: _65  and  _67
REMARK   28  A    between atoms: _67  and  _68
REMARK   29  A    between atoms: _67  and  _70
REMARK   30  A    between atoms: _70  and  _71
REMARK   31  A    between atoms: _71  and  _72
REMARK   32  A    between atoms: _74  and  _76
REMARK   33  A    between atoms: _76  and  _77
REMARK   34  A    between atoms: _76  and  _79
REMARK   35  A    between atoms: _79  and  _80
REMARK   36  A    between atoms: _82  and  _84
REMARK   37  A    between atoms: _84  and  _85
REMARK   38  A    between atoms: _84  and  _87
REMARK   39  A    between atoms: _87  and  _88
REMARK   40  A    between atoms: _93  and  _95
REMARK   41  A    between atoms: _95  and  _96
REMARK   42  A    between atoms: _95  and  _98
REMARK   43  A    between atoms: _98  and  _99
REMARK   44  A    between atoms: _102  and  _104
REMARK   45  A    between atoms: _104  and  _105
REMARK   46  A    between atoms: _104  and  _107
REMARK   47  A    between atoms: _107  and  _108
REMARK   48  A    between atoms: _111  and  _113
REMARK   49  A    between atoms: _113  and  _114
REMARK   50  A    between atoms: _117  and  _119
REMARK   51  A    between atoms: _119  and  _120
REMARK   52  A    between atoms: _122  and  _124
REMARK   53  A    between atoms: _124  and  _125
REMARK   54  A    between atoms: _124  and  _127
REMARK   55  A    between atoms: _127  and  _128
REMARK   56  A    between atoms: _128  and  _129
REMARK   57  A    between atoms: _129  and  _130
REMARK   58  A    between atoms: _130  and  _131
REMARK   59  A    between atoms: _135  and  _137
REMARK   60  A    between atoms: _137  and  _138
REMARK   61  A    between atoms: _137  and  _140
REMARK   62  A    between atoms: _140  and  _141
REMARK   63  A    between atoms: _141  and  _142
REMARK   64  A    between atoms: _142  and  _143
REMARK   65  A    between atoms: _143  and  _144
REMARK   66  A    between atoms: _148  and  _150
REMARK   67  A    between atoms: _150  and  _151
REMARK   68  A    between atoms: _150  and  _153
REMARK   69  A    between atoms: _153  and  _154
REMARK   70  A    between atoms: _154  and  _155
REMARK   71  A    between atoms: _158  and  _160
REMARK   72  A    between atoms: _160  and  _161
REMARK   73  A    between atoms: _164  and  _166
REMARK   74  A    between atoms: _166  and  _167
REMARK   75  A    between atoms: _170  and  _172
REMARK   76  A    between atoms: _172  and  _173
REMARK   77  A    between atoms: _172  and  _175
REMARK   78  A    between atoms: _175  and  _176
REMARK   79  A    between atoms: _186  and  _188
REMARK   80  A    between atoms: _188  and  _189
REMARK   81  A    between atoms: _192  and  _194
REMARK   82  A    between atoms: _194  and  _195
REMARK   83  A    between atoms: _194  and  _197
REMARK   84  A    between atoms: _197  and  _198
REMARK   85  A    between atoms: _201  and  _203
REMARK   86  A    between atoms: _203  and  _204
REMARK   87  A    between atoms: _203  and  _206
REMARK   88  A    between atoms: _206  and  _207
REMARK   89  A    between atoms: _212  and  _214
REMARK   90  A    between atoms: _214  and  _215
REMARK   91  A    between atoms: _214  and  _217
REMARK   92  A    between atoms: _217  and  _218
REMARK   93  A    between atoms: _220  and  _222
REMARK   94  A    between atoms: _222  and  _223
REMARK   95  A    between atoms: _222  and  _225
REMARK   96  A    between atoms: _225  and  _226
REMARK   97  A    between atoms: _226  and  _227
REMARK   98  A    between atoms: _227  and  _228
REMARK   99  A    between atoms: _228  and  _229
REMARK  100  A    between atoms: _233  and  _235
REMARK  101  A    between atoms: _235  and  _236
REMARK  102  A    between atoms: _235  and  _238
REMARK                            x       y       z     vdW  Elec       q    Type
REMARK                         _______ _______ _______ _____ _____    ______ ____
ROOT
ATOM      1  CA  VAL A   1       1.762 126.481 -21.359  0.00  0.00    +0.133 C 
ENDROOT
BRANCH   1   2
ATOM      2  CB  VAL A   1       2.220 125.474 -20.274  0.00  0.00    +0.023 C 
ATOM      3  CG2 VAL A   1       3.087 126.155 -19.214  0.00  0.00    +0.002 C 
ATOM      4  CG1 VAL A   1       1.007 124.809 -19.631  0.00  0.00    +0.002 C 
ENDBRANCH   1   2
BRANCH   1   5
ATOM      5  N   VAL A   1       1.184 125.776 -22.496  0.00  0.00    -0.239 NA
ATOM      6  H   VAL A   1       1.166 124.736 -22.486  0.00  0.00    +0.142 HD
ENDBRANCH   1   5
BRANCH   1   7
ATOM      7  C   VAL A   1       2.929 127.388 -21.788  0.00  0.00    +0.224 C 
ATOM      8  O   VAL A   1       3.012 128.539 -21.365  0.00  0.00    -0.287 OA
ENDBRANCH   1   7
TORSDOF 3
REMARK  Name = ../refined-set-2016/4u54/4u54_pocket.pdb
REMARK  102 active torsions:
REMARK  status: ('A' for Active; 'I' for Inactive)
REMARK    1  A    between atoms: _1  and  _3
REMARK    2  A    between atoms: _3  and  _4
REMARK    3  A    between atoms: _3  and  _6
REMARK    4  A    between atoms: _9  and  _11
REMARK    5  A    between atoms: _11  and  _12
REMARK    6  A    between atoms: _11  and  _14
REMARK    7  A    between atoms: _14  and  _15
REMARK    8  A    between atoms: _18  and  _20
REMARK    9  A    between atoms: _20  and  _21
REMARK   10  A    between atoms: _20  and  _23
REMARK   11  A    between atoms: _23  and  _24
REMARK   12  A    between atoms: _24  and  _25
REMARK   13  A    between atoms: _25  and  _26
REMARK   14  A    between atoms: _26  and  _27
REMARK   15  A    between atoms: _31  and  _33
REMARK   16  A    between atoms: _33  and  _34
REMARK   17  A    between atoms: _33  and  _36
REMARK   18  A    between atoms: _36  and  _37
REMARK   19  A    between atoms: _40  and  _42
REMARK   20  A    between atoms: _42  and  _43
REMARK   21  A    between atoms: _42  and  _45
REMARK   22  A    between atoms: _45  and  _46
REMARK   23  A    between atoms: _56  and  _58
REMARK   24  A    between atoms: _58  and  _59
REMARK   25  A    between atoms: _58  and  _61
REMARK   26  A    between atoms: _61  and  _62
REMARK   27  A    between atoms: _65  and  _67
REMARK   28  A    between atoms: _67  and  _68
REMARK   29  A    between atoms: _67  and  _70
REMARK   30  A    between atoms: _70  and  _71
REMARK   31  A    between atoms: _71  and  _72
REMARK   32  A    between atoms: _74  and  _76
REMARK   33  A    between atoms: _76  and  _77
REMARK   34  A    between atoms: _76  and  _79
REMARK   35  A    between atoms: _79  and  _80
REMARK   36  A    between atoms: _82  and  _84
REMARK   37  A    between atoms: _84  and  _85
REMARK   38  A    between atoms: _84  and  _87
REMARK   39  A    between atoms: _87  and  _88
REMARK   40  A    between atoms: _93  and  _95
REMARK   41  A    between atoms: _95  and  _96
REMARK   42  A    between atoms: _95  and  _98
REMARK   43  A    between atoms: _98  and  _99
REMARK   44  A    between atoms: _102  and  _104
REMARK   45  A    between atoms: _104  and  _105
REMARK   46  A    between atoms: _104  and  _107
REMARK   47  A    between atoms: _107  and  _108
REMARK   48  A    between atoms: _111  and  _113
REMARK   49  A    between atoms: _113  and  _114
REMARK   50  A    between atoms: _117  and  _119
REMARK   51  A    between atoms: _119  and  _120
REMARK   52  A    between atoms: _122  and  _124
REMARK   53  A    between atoms: _124  and  _125
REMARK   54  A    between atoms: _124  and  _127
REMARK   55  A    between atoms: _127  and  _128
REMARK   56  A    between atoms: _128  and  _129
REMARK   57  A    between atoms: _129  and  _130
REMARK   58  A    between atoms: _130  and  _131
REMARK   59  A    between atoms: _135  and  _137
REMARK   60  A    between atoms: _137  and  _138
REMARK   61  A    between atoms: _137  and  _140
REMARK   62  A    between atoms: _140  and  _141
REMARK   63  A    between atoms: _141  and  _142
REMARK   64  A    between atoms: _142  and  _143
REMARK   65  A    between atoms: _143  and  _144
REMARK   66  A    between atoms: _148  and  _150
REMARK   67  A    between atoms: _150  and  _151
REMARK   68  A    between atoms: _150  and  _153
REMARK   69  A    between atoms: _153  and  _154
REMARK   70  A    between atoms: _154  and  _155
REMARK   71  A    between atoms: _158  and  _160
REMARK   72  A    between atoms: _160  and  _161
REMARK   73  A    between atoms: _164  and  _166
REMARK   74  A    between atoms: _166  and  _167
REMARK   75  A    between atoms: _170  and  _172
REMARK   76  A    between atoms: _172  and  _173
REMARK   77  A    between atoms: _172  and  _175
REMARK   78  A    between atoms: _175  and  _176
REMARK   79  A    between atoms: _186  and  _188
REMARK   80  A    between atoms: _188  and  _189
REMARK   81  A    between atoms: _192  and  _194
REMARK   82  A    between atoms: _194  and  _195
REMARK   83  A    between atoms: _194  and  _197
REMARK   84  A    between atoms: _197  and  _198
REMARK   85  A    between atoms: _201  and  _203
REMARK   86  A    between atoms: _203  and  _204
REMARK   87  A    between atoms: _203  and  _206
REMARK   88  A    between atoms: _206  and  _207
REMARK   89  A    between atoms: _212  and  _214
REMARK   90  A    between atoms: _214  and  _215
REMARK   91  A    between atoms: _214  and  _217
REMARK   92  A    between atoms: _217  and  _218
REMARK   93  A    between atoms: _220  and  _222
REMARK   94  A    between atoms: _222  and  _223
REMARK   95  A    between atoms: _222  and  _225
REMARK   96  A    between atoms: _225  and  _226
REMARK   97  A    between atoms: _226  and  _227
REMARK   98  A    between atoms: _227  and  _228
REMARK   99  A    between atoms: _228  and  _229
REMARK  100  A    between atoms: _233  and  _235
REMARK  101  A    between atoms: _235  and  _236
REMARK  102  A    between atoms: _235  and  _238
REMARK                            x       y       z     vdW  Elec       q    Type
REMARK                         _______ _______ _______ _____ _____    ______ ____
ROOT
ATOM      1  O   HOH     1      -3.061 125.530 -20.511  0.00  0.00    +0.000 OA
ENDROOT
TORSDOF 0
REMARK  Name = ../refined-set-2016/4u54/4u54_pocket.pdb
REMARK  102 active torsions:
REMARK  status: ('A' for Active; 'I' for Inactive)
REMARK    1  A    between atoms: _1  and  _3
REMARK    2  A    between atoms: _3  and  _4
REMARK    3  A    between atoms: _3  and  _6
REMARK    4  A    between atoms: _9  and  _11
REMARK    5  A    between atoms: _11  and  _12
REMARK    6  A    between atoms: _11  and  _14
REMARK    7  A    between atoms: _14  and  _15
REMARK    8  A    between atoms: _18  and  _20
REMARK    9  A    between atoms: _20  and  _21
REMARK   10  A    between atoms: _20  and  _23
REMARK   11  A    between atoms: _23  and  _24
REMARK   12  A    between atoms: _24  and  _25
REMARK   13  A    between atoms: _25  and  _26
REMARK   14  A    between atoms: _26  and  _27
REMARK   15  A    between atoms: _31  and  _33
REMARK   16  A    between atoms: _33  and  _34
REMARK   17  A    between atoms: _33  and  _36
REMARK   18  A    between atoms: _36  and  _37
REMARK   19  A    between atoms: _40  and  _42
REMARK   20  A    between atoms: _42  and  _43
REMARK   21  A    between atoms: _42  and  _45
REMARK   22  A    between atoms: _45  and  _46
REMARK   23  A    between atoms: _56  and  _58
REMARK   24  A    between atoms: _58  and  _59
REMARK   25  A    between atoms: _58  and  _61
REMARK   26  A    between atoms: _61  and  _62
REMARK   27  A    between atoms: _65  and  _67
REMARK   28  A    between atoms: _67  and  _68
REMARK   29  A    between atoms: _67  and  _70
REMARK   30  A    between atoms: _70  and  _71
REMARK   31  A    between atoms: _71  and  _72
REMARK   32  A    between atoms: _74  and  _76
REMARK   33  A    between atoms: _76  and  _77
REMARK   34  A    between atoms: _76  and  _79
REMARK   35  A    between atoms: _79  and  _80
REMARK   36  A    between atoms: _82  and  _84
REMARK   37  A    between atoms: _84  and  _85
REMARK   38  A    between atoms: _84  and  _87
REMARK   39  A    between atoms: _87  and  _88
REMARK   40  A    between atoms: _93  and  _95
REMARK   41  A    between atoms: _95  and  _96
REMARK   42  A    between atoms: _95  and  _98
REMARK   43  A    between atoms: _98  and  _99
REMARK   44  A    between atoms: _102  and  _104
REMARK   45  A    between atoms: _104  and  _105
REMARK   46  A    between atoms: _104  and  _107
REMARK   47  A    between atoms: _107  and  _108
REMARK   48  A    between atoms: _111  and  _113
REMARK   49  A    between atoms: _113  and  _114
REMARK   50  A    between atoms: _117  and  _119
REMARK   51  A    between atoms: _119  and  _120
REMARK   52  A    between atoms: _122  and  _124
REMARK   53  A    between atoms: _124  and  _125
REMARK   54  A    between atoms: _124  and  _127
REMARK   55  A    between atoms: _127  and  _128
REMARK   56  A    between atoms: _128  and  _129
REMARK   57  A    between atoms: _129  and  _130
REMARK   58  A    between atoms: _130  and  _131
REMARK   59  A    between atoms: _135  and  _137
REMARK   60  A    between atoms: _137  and  _138
REMARK   61  A    between atoms: _137  and  _140
REMARK   62  A    between atoms: _140  and  _141
REMARK   63  A    between atoms: _141  and  _142
REMARK   64  A    between atoms: _142  and  _143
REMARK   65  A    between atoms: _143  and  _144
REMARK   66  A    between atoms: _148  and  _150
REMARK   67  A    between atoms: _150  and  _151
REMARK   68  A    between atoms: _150  and  _153
REMARK   69  A    between atoms: _153  and  _154
REMARK   70  A    between atoms: _154  and  _155
REMARK   71  A    between atoms: _158  and  _160
REMARK   72  A    between atoms: _160  and  _161
REMARK   73  A    between atoms: _164  and  _166
REMARK   74  A    between atoms: _166  and  _167
REMARK   75  A    between atoms: _170  and  _172
REMARK   76  A    between atoms: _172  and  _173
REMARK   77  A    between atoms: _172  and  _175
REMARK   78  A    between atoms: _175  and  _176
REMARK   79  A    between atoms: _186  and  _188
REMARK   80  A    between atoms: _188  and  _189
REMARK   81  A    between atoms: _192  and  _194
REMARK   82  A    between atoms: _194  and  _195
REMARK   83  A    between atoms: _194  and  _197
REMARK   84  A    between atoms: _197  and  _198
REMARK   85  A    between atoms: _201  and  _203
REMARK   86  A    between atoms: _203  and  _204
REMARK   87  A    between atoms: _203  and  _206
REMARK   88  A    between atoms: _206  and  _207
REMARK   89  A    between atoms: _212  and  _214
REMARK   90  A    between atoms: _214  and  _215
REMARK   91  A    between atoms: _214  and  _217
REMARK   92  A    between atoms: _217  and  _218
REMARK   93  A    between atoms: _220  and  _222
REMARK   94  A    between atoms: _222  and  _223
REMARK   95  A    between atoms: _222  and  _225
REMARK   96  A    between atoms: _225  and  _226
REMARK   97  A    between atoms: _226  and  _227
REMARK   98  A    between atoms: _227  and  _228
REMARK   99  A    between atoms: _228  and  _229
REMARK  100  A    between atoms: _233  and  _235
REMARK  101  A    between atoms: _235  and  _236
REMARK  102  A    between atoms: _235  and  _238
REMARK                            x       y       z     vdW  Elec       q    Type
REMARK                         _______ _______ _______ _____ _____    ______ ____
ROOT
ATOM      1  O   HOH     1      -0.053 119.169 -10.350  0.00  0.00    +0.000 OA
ENDROOT
TORSDOF 0
REMARK  Name = ../refined-set-2016/4u54/4u54_pocket.pdb
REMARK  102 active torsions:
REMARK  status: ('A' for Active; 'I' for Inactive)
REMARK    1  A    between atoms: _1  and  _3
REMARK    2  A    between atoms: _3  and  _4
REMARK    3  A    between atoms: _3  and  _6
REMARK    4  A    between atoms: _9  and  _11
REMARK    5  A    between atoms: _11  and  _12
REMARK    6  A    between atoms: _11  and  _14
REMARK    7  A    between atoms: _14  and  _15
REMARK    8  A    between atoms: _18  and  _20
REMARK    9  A    between atoms: _20  and  _21
REMARK   10  A    between atoms: _20  and  _23
REMARK   11  A    between atoms: _23  and  _24
REMARK   12  A    between atoms: _24  and  _25
REMARK   13  A    between atoms: _25  and  _26
REMARK   14  A    between atoms: _26  and  _27
REMARK   15  A    between atoms: _31  and  _33
REMARK   16  A    between atoms: _33  and  _34
REMARK   17  A    between atoms: _33  and  _36
REMARK   18  A    between atoms: _36  and  _37
REMARK   19  A    between atoms: _40  and  _42
REMARK   20  A    between atoms: _42  and  _43
REMARK   21  A    between atoms: _42  and  _45
REMARK   22  A    between atoms: _45  and  _46
REMARK   23  A    between atoms: _56  and  _58
REMARK   24  A    between atoms: _58  and  _59
REMARK   25  A    between atoms: _58  and  _61
REMARK   26  A    between atoms: _61  and  _62
REMARK   27  A    between atoms: _65  and  _67
REMARK   28  A    between atoms: _67  and  _68
REMARK   29  A    between atoms: _67  and  _70
REMARK   30  A    between atoms: _70  and  _71
REMARK   31  A    between atoms: _71  and  _72
REMARK   32  A    between atoms: _74  and  _76
REMARK   33  A    between atoms: _76  and  _77
REMARK   34  A    between atoms: _76  and  _79
REMARK   35  A    between atoms: _79  and  _80
REMARK   36  A    between atoms: _82  and  _84
REMARK   37  A    between atoms: _84  and  _85
REMARK   38  A    between atoms: _84  and  _87
REMARK   39  A    between atoms: _87  and  _88
REMARK   40  A    between atoms: _93  and  _95
REMARK   41  A    between atoms: _95  and  _96
REMARK   42  A    between atoms: _95  and  _98
REMARK   43  A    between atoms: _98  and  _99
REMARK   44  A    between atoms: _102  and  _104
REMARK   45  A    between atoms: _104  and  _105
REMARK   46  A    between atoms: _104  and  _107
REMARK   47  A    between atoms: _107  and  _108
REMARK   48  A    between atoms: _111  and  _113
REMARK   49  A    between atoms: _113  and  _114
REMARK   50  A    between atoms: _117  and  _119
REMARK   51  A    between atoms: _119  and  _120
REMARK   52  A    between atoms: _122  and  _124
REMARK   53  A    between atoms: _124  and  _125
REMARK   54  A    between atoms: _124  and  _127
REMARK   55  A    between atoms: _127  and  _128
REMARK   56  A    between atoms: _128  and  _129
REMARK   57  A    between atoms: _129  and  _130
REMARK   58  A    between atoms: _130  and  _131
REMARK   59  A    between atoms: _135  and  _137
REMARK   60  A    between atoms: _137  and  _138
REMARK   61  A    between atoms: _137  and  _140
REMARK   62  A    between atoms: _140  and  _141
REMARK   63  A    between atoms: _141  and  _142
REMARK   64  A    between atoms: _142  and  _143
REMARK   65  A    between atoms: _143  and  _144
REMARK   66  A    between atoms: _148  and  _150
REMARK   67  A    between atoms: _150  and  _151
REMARK   68  A    between atoms: _150  and  _153
REMARK   69  A    between atoms: _153  and  _154
REMARK   70  A    between atoms: _154  and  _155
REMARK   71  A    between atoms: _158  and  _160
REMARK   72  A    between atoms: _160  and  _161
REMARK   73  A    between atoms: _164  and  _166
REMARK   74  A    between atoms: _166  and  _167
REMARK   75  A    between atoms: _170  and  _172
REMARK   76  A    between atoms: _172  and  _173
REMARK   77  A    between atoms: _172  and  _175
REMARK   78  A    between atoms: _175  and  _176
REMARK   79  A    between atoms: _186  and  _188
REMARK   80  A    between atoms: _188  and  _189
REMARK   81  A    between atoms: _192  and  _194
REMARK   82  A    between atoms: _194  and  _195
REMARK   83  A    between atoms: _194  and  _197
REMARK   84  A    between atoms: _197  and  _198
REMARK   85  A    between atoms: _201  and  _203
REMARK   86  A    between atoms: _203  and  _204
REMARK   87  A    between atoms: _203  and  _206
REMARK   88  A    between atoms: _206  and  _207
REMARK   89  A    between atoms: _212  and  _214
REMARK   90  A    between atoms: _214  and  _215
REMARK   91  A    between atoms: _214  and  _217
REMARK   92  A    between atoms: _217  and  _218
REMARK   93  A    between atoms: _220  and  _222
REMARK   94  A    between atoms: _222  and  _223
REMARK   95  A    between atoms: _222  and  _225
REMARK   96  A    between atoms: _225  and  _226
REMARK   97  A    between atoms: _226  and  _227
REMARK   98  A    between atoms: _227  and  _228
REMARK   99  A    between atoms: _228  and  _229
REMARK  100  A    between atoms: _233  and  _235
REMARK  101  A    between atoms: _235  and  _236
REMARK  102  A    between atoms: _235  and  _238
REMARK                            x       y       z     vdW  Elec       q    Type
REMARK                         _______ _______ _______ _____ _____    ______ ____
ROOT
ATOM      1  O   HOH     1       4.202 117.421 -14.523  0.00  0.00    +0.000 OA
ENDROOT
TORSDOF 0
REMARK  Name = ../refined-set-2016/4u54/4u54_pocket.pdb
REMARK  102 active torsions:
REMARK  status: ('A' for Active; 'I' for Inactive)
REMARK    1  A    between atoms: _1  and  _3
REMARK    2  A    between atoms: _3  and  _4
REMARK    3  A    between atoms: _3  and  _6
REMARK    4  A    between atoms: _9  and  _11
REMARK    5  A    between atoms: _11  and  _12
REMARK    6  A    between atoms: _11  and  _14
REMARK    7  A    between atoms: _14  and  _15
REMARK    8  A    between atoms: _18  and  _20
REMARK    9  A    between atoms: _20  and  _21
REMARK   10  A    between atoms: _20  and  _23
REMARK   11  A    between atoms: _23  and  _24
REMARK   12  A    between atoms: _24  and  _25
REMARK   13  A    between atoms: _25  and  _26
REMARK   14  A    between atoms: _26  and  _27
REMARK   15  A    between atoms: _31  and  _33
REMARK   16  A    between atoms: _33  and  _34
REMARK   17  A    between atoms: _33  and  _36
REMARK   18  A    between atoms: _36  and  _37
REMARK   19  A    between atoms: _40  and  _42
REMARK   20  A    between atoms: _42  and  _43
REMARK   21  A    between atoms: _42  and  _45
REMARK   22  A    between atoms: _45  and  _46
REMARK   23  A    between atoms: _56  and  _58
REMARK   24  A    between atoms: _58  and  _59
REMARK   25  A    between atoms: _58  and  _61
REMARK   26  A    between atoms: _61  and  _62
REMARK   27  A    between atoms: _65  and  _67
REMARK   28  A    between atoms: _67  and  _68
REMARK   29  A    between atoms: _67  and  _70
REMARK   30  A    between atoms: _70  and  _71
REMARK   31  A    between atoms: _71  and  _72
REMARK   32  A    between atoms: _74  and  _76
REMARK   33  A    between atoms: _76  and  _77
REMARK   34  A    between atoms: _76  and  _79
REMARK   35  A    between atoms: _79  and  _80
REMARK   36  A    between atoms: _82  and  _84
REMARK   37  A    between atoms: _84  and  _85
REMARK   38  A    between atoms: _84  and  _87
REMARK   39  A    between atoms: _87  and  _88
REMARK   40  A    between atoms: _93  and  _95
REMARK   41  A    between atoms: _95  and  _96
REMARK   42  A    between atoms: _95  and  _98
REMARK   43  A    between atoms: _98  and  _99
REMARK   44  A    between atoms: _102  and  _104
REMARK   45  A    between atoms: _104  and  _105
REMARK   46  A    between atoms: _104  and  _107
REMARK   47  A    between atoms: _107  and  _108
REMARK   48  A    between atoms: _111  and  _113
REMARK   49  A    between atoms: _113  and  _114
REMARK   50  A    between atoms: _117  and  _119
REMARK   51  A    between atoms: _119  and  _120
REMARK   52  A    between atoms: _122  and  _124
REMARK   53  A    between atoms: _124  and  _125
REMARK   54  A    between atoms: _124  and  _127
REMARK   55  A    between atoms: _127  and  _128
REMARK   56  A    between atoms: _128  and  _129
REMARK   57  A    between atoms: _129  and  _130
REMARK   58  A    between atoms: _130  and  _131
REMARK   59  A    between atoms: _135  and  _137
REMARK   60  A    between atoms: _137  and  _138
REMARK   61  A    between atoms: _137  and  _140
REMARK   62  A    between atoms: _140  and  _141
REMARK   63  A    between atoms: _141  and  _142
REMARK   64  A    between atoms: _142  and  _143
REMARK   65  A    between atoms: _143  and  _144
REMARK   66  A    between atoms: _148  and  _150
REMARK   67  A    between atoms: _150  and  _151
REMARK   68  A    between atoms: _150  and  _153
REMARK   69  A    between atoms: _153  and  _154
REMARK   70  A    between atoms: _154  and  _155
REMARK   71  A    between atoms: _158  and  _160
REMARK   72  A    between atoms: _160  and  _161
REMARK   73  A    between atoms: _164  and  _166
REMARK   74  A    between atoms: _166  and  _167
REMARK   75  A    between atoms: _170  and  _172
REMARK   76  A    between atoms: _172  and  _173
REMARK   77  A    between atoms: _172  and  _175
REMARK   78  A    between atoms: _175  and  _176
REMARK   79  A    between atoms: _186  and  _188
REMARK   80  A    between atoms: _188  and  _189
REMARK   81  A    between atoms: _192  and  _194
REMARK   82  A    between atoms: _194  and  _195
REMARK   83  A    between atoms: _194  and  _197
REMARK   84  A    between atoms: _197  and  _198
REMARK   85  A    between atoms: _201  and  _203
REMARK   86  A    between atoms: _203  and  _204
REMARK   87  A    between atoms: _203  and  _206
REMARK   88  A    between atoms: _206  and  _207
REMARK   89  A    between atoms: _212  and  _214
REMARK   90  A    between atoms: _214  and  _215
REMARK   91  A    between atoms: _214  and  _217
REMARK   92  A    between atoms: _217  and  _218
REMARK   93  A    between atoms: _220  and  _222
REMARK   94  A    between atoms: _222  and  _223
REMARK   95  A    between atoms: _222  and  _225
REMARK   96  A    between atoms: _225  and  _226
REMARK   97  A    between atoms: _226  and  _227
REMARK   98  A    between atoms: _227  and  _228
REMARK   99  A    between atoms: _228  and  _229
REMARK  100  A    between atoms: _233  and  _235
REMARK  101  A    between atoms: _235  and  _236
REMARK  102  A    between atoms: _235  and  _238
REMARK                            x       y       z     vdW  Elec       q    Type
REMARK                         _______ _______ _______ _____ _____    ______ ____
ROOT
ATOM      1  O   HOH     1      -0.742 122.546  -8.272  0.00  0.00    +0.000 OA
ENDROOT
TORSDOF 0
REMARK  Name = ../refined-set-2016/4u54/4u54_pocket.pdb
REMARK  102 active torsions:
REMARK  status: ('A' for Active; 'I' for Inactive)
REMARK    1  A    between atoms: _1  and  _3
REMARK    2  A    between atoms: _3  and  _4
REMARK    3  A    between atoms: _3  and  _6
REMARK    4  A    between atoms: _9  and  _11
REMARK    5  A    between atoms: _11  and  _12
REMARK    6  A    between atoms: _11  and  _14
REMARK    7  A    between atoms: _14  and  _15
REMARK    8  A    between atoms: _18  and  _20
REMARK    9  A    between atoms: _20  and  _21
REMARK   10  A    between atoms: _20  and  _23
REMARK   11  A    between atoms: _23  and  _24
REMARK   12  A    between atoms: _24  and  _25
REMARK   13  A    between atoms: _25  and  _26
REMARK   14  A    between atoms: _26  and  _27
REMARK   15  A    between atoms: _31  and  _33
REMARK   16  A    between atoms: _33  and  _34
REMARK   17  A    between atoms: _33  and  _36
REMARK   18  A    between atoms: _36  and  _37
REMARK   19  A    between atoms: _40  and  _42
REMARK   20  A    between atoms: _42  and  _43
REMARK   21  A    between atoms: _42  and  _45
REMARK   22  A    between atoms: _45  and  _46
REMARK   23  A    between atoms: _56  and  _58
REMARK   24  A    between atoms: _58  and  _59
REMARK   25  A    between atoms: _58  and  _61
REMARK   26  A    between atoms: _61  and  _62
REMARK   27  A    between atoms: _65  and  _67
REMARK   28  A    between atoms: _67  and  _68
REMARK   29  A    between atoms: _67  and  _70
REMARK   30  A    between atoms: _70  and  _71
REMARK   31  A    between atoms: _71  and  _72
REMARK   32  A    between atoms: _74  and  _76
REMARK   33  A    between atoms: _76  and  _77
REMARK   34  A    between atoms: _76  and  _79
REMARK   35  A    between atoms: _79  and  _80
REMARK   36  A    between atoms: _82  and  _84
REMARK   37  A    between atoms: _84  and  _85
REMARK   38  A    between atoms: _84  and  _87
REMARK   39  A    between atoms: _87  and  _88
REMARK   40  A    between atoms: _93  and  _95
REMARK   41  A    between atoms: _95  and  _96
REMARK   42  A    between atoms: _95  and  _98
REMARK   43  A    between atoms: _98  and  _99
REMARK   44  A    between atoms: _102  and  _104
REMARK   45  A    between atoms: _104  and  _105
REMARK   46  A    between atoms: _104  and  _107
REMARK   47  A    between atoms: _107  and  _108
REMARK   48  A    between atoms: _111  and  _113
REMARK   49  A    between atoms: _113  and  _114
REMARK   50  A    between atoms: _117  and  _119
REMARK   51  A    between atoms: _119  and  _120
REMARK   52  A    between atoms: _122  and  _124
REMARK   53  A    between atoms: _124  and  _125
REMARK   54  A    between atoms: _124  and  _127
REMARK   55  A    between atoms: _127  and  _128
REMARK   56  A    between atoms: _128  and  _129
REMARK   57  A    between atoms: _129  and  _130
REMARK   58  A    between atoms: _130  and  _131
REMARK   59  A    between atoms: _135  and  _137
REMARK   60  A    between atoms: _137  and  _138
REMARK   61  A    between atoms: _137  and  _140
REMARK   62  A    between atoms: _140  and  _141
REMARK   63  A    between atoms: _141  and  _142
REMARK   64  A    between atoms: _142  and  _143
REMARK   65  A    between atoms: _143  and  _144
REMARK   66  A    between atoms: _148  and  _150
REMARK   67  A    between atoms: _150  and  _151
REMARK   68  A    between atoms: _150  and  _153
REMARK   69  A    between atoms: _153  and  _154
REMARK   70  A    between atoms: _154  and  _155
REMARK   71  A    between atoms: _158  and  _160
REMARK   72  A    between atoms: _160  and  _161
REMARK   73  A    between atoms: _164  and  _166
REMARK   74  A    between atoms: _166  and  _167
REMARK   75  A    between atoms: _170  and  _172
REMARK   76  A    between atoms: _172  and  _173
REMARK   77  A    between atoms: _172  and  _175
REMARK   78  A    between atoms: _175  and  _176
REMARK   79  A    between atoms: _186  and  _188
REMARK   80  A    between atoms: _188  and  _189
REMARK   81  A    between atoms: _192  and  _194
REMARK   82  A    between atoms: _194  and  _195
REMARK   83  A    between atoms: _194  and  _197
REMARK   84  A    between atoms: _197  and  _198
REMARK   85  A    between atoms: _201  and  _203
REMARK   86  A    between atoms: _203  and  _204
REMARK   87  A    between atoms: _203  and  _206
REMARK   88  A    between atoms: _206  and  _207
REMARK   89  A    between atoms: _212  and  _214
REMARK   90  A    between atoms: _214  and  _215
REMARK   91  A    between atoms: _214  and  _217
REMARK   92  A    between atoms: _217  and  _218
REMARK   93  A    between atoms: _220  and  _222
REMARK   94  A    between atoms: _222  and  _223
REMARK   95  A    between atoms: _222  and  _225
REMARK   96  A    between atoms: _225  and  _226
REMARK   97  A    between atoms: _226  and  _227
REMARK   98  A    between atoms: _227  and  _228
REMARK   99  A    between atoms: _228  and  _229
REMARK  100  A    between atoms: _233  and  _235
REMARK  101  A    between atoms: _235  and  _236
REMARK  102  A    between atoms: _235  and  _238
REMARK                            x       y       z     vdW  Elec       q    Type
REMARK                         _______ _______ _______ _____ _____    ______ ____
ROOT
ATOM      1  O   HOH     1      -0.609 132.674 -12.378  0.00  0.00    +0.000 OA
ENDROOT
TORSDOF 0
