REMARK  Name = ../refined-set-2016/4xu0/4xu0_pocket.pdb
REMARK  231 active torsions:
REMARK  status: ('A' for Active; 'I' for Inactive)
REMARK    1  A    between atoms: _1  and  _3
REMARK    2  A    between atoms: _3  and  _4
REMARK    3  A    between atoms: _3  and  _6
REMARK    4  A    between atoms: _6  and  _7
REMARK    5  A    between atoms: _10  and  _12
REMARK    6  A    between atoms: _12  and  _13
REMARK    7  A    between atoms: _15  and  _17
REMARK    8  A    between atoms: _17  and  _18
REMARK    9  A    between atoms: _17  and  _20
REMARK   10  A    between atoms: _20  and  _21
REMARK   11  A    between atoms: _23  and  _25
REMARK   12  A    between atoms: _25  and  _26
REMARK   13  A    between atoms: _25  and  _28
REMARK   14  A    between atoms: _28  and  _29
REMARK   15  A    between atoms: _32  and  _34
REMARK   16  A    between atoms: _34  and  _35
REMARK   17  A    between atoms: _34  and  _37
REMARK   18  A    between atoms: _37  and  _38
REMARK   19  A    between atoms: _43  and  _45
REMARK   20  A    between atoms: _45  and  _46
REMARK   21  A    between atoms: _49  and  _51
REMARK   22  A    between atoms: _51  and  _52
REMARK   23  A    between atoms: _51  and  _54
REMARK   24  A    between atoms: _54  and  _55
REMARK   25  A    between atoms: _58  and  _60
REMARK   26  A    between atoms: _60  and  _61
REMARK   27  A    between atoms: _60  and  _63
REMARK   28  A    between atoms: _63  and  _64
REMARK   29  A    between atoms: _67  and  _69
REMARK   30  A    between atoms: _69  and  _70
REMARK   31  A    between atoms: _69  and  _72
REMARK   32  A    between atoms: _72  and  _73
REMARK   33  A    between atoms: _76  and  _78
REMARK   34  A    between atoms: _78  and  _79
REMARK   35  A    between atoms: _82  and  _84
REMARK   36  A    between atoms: _84  and  _85
REMARK   37  A    between atoms: _84  and  _87
REMARK   38  A    between atoms: _87  and  _88
REMARK   39  A    between atoms: _88  and  _89
REMARK   40  A    between atoms: _94  and  _96
REMARK   41  A    between atoms: _96  and  _97
REMARK   42  A    between atoms: _96  and  _99
REMARK   43  A    between atoms: _99  and  _100
REMARK   44  A    between atoms: _103  and  _105
REMARK   45  A    between atoms: _105  and  _106
REMARK   46  A    between atoms: _109  and  _111
REMARK   47  A    between atoms: _111  and  _112
REMARK   48  A    between atoms: _114  and  _116
REMARK   49  A    between atoms: _116  and  _117
REMARK   50  A    between atoms: _116  and  _119
REMARK   51  A    between atoms: _119  and  _120
REMARK   52  A    between atoms: _120  and  _121
REMARK   53  A    between atoms: _121  and  _122
REMARK   54  A    between atoms: _131  and  _133
REMARK   55  A    between atoms: _133  and  _134
REMARK   56  A    between atoms: _136  and  _138
REMARK   57  A    between atoms: _138  and  _139
REMARK   58  A    between atoms: _138  and  _141
REMARK   59  A    between atoms: _141  and  _142
REMARK   60  A    between atoms: _142  and  _143
REMARK   61  A    between atoms: _143  and  _144
REMARK   62  A    between atoms: _153  and  _155
REMARK   63  A    between atoms: _155  and  _156
REMARK   64  A    between atoms: _155  and  _158
REMARK   65  A    between atoms: _158  and  _159
REMARK   66  A    between atoms: _164  and  _166
REMARK   67  A    between atoms: _166  and  _167
REMARK   68  A    between atoms: _169  and  _171
REMARK   69  A    between atoms: _171  and  _172
REMARK   70  A    between atoms: _171  and  _174
REMARK   71  A    between atoms: _174  and  _175
REMARK   72  A    between atoms: _175  and  _176
REMARK   73  A    between atoms: _176  and  _177
REMARK   74  A    between atoms: _186  and  _188
REMARK   75  A    between atoms: _188  and  _189
REMARK   76  A    between atoms: _191  and  _193
REMARK   77  A    between atoms: _193  and  _194
REMARK   78  A    between atoms: _193  and  _196
REMARK   79  A    between atoms: _196  and  _197
REMARK   80  A    between atoms: _207  and  _209
REMARK   81  A    between atoms: _209  and  _210
REMARK   82  A    between atoms: _213  and  _215
REMARK   83  A    between atoms: _215  and  _216
REMARK   84  A    between atoms: _219  and  _221
REMARK   85  A    between atoms: _221  and  _222
REMARK   86  A    between atoms: _221  and  _224
REMARK   87  A    between atoms: _224  and  _225
REMARK   88  A    between atoms: _228  and  _230
REMARK   89  A    between atoms: _230  and  _231
REMARK   90  A    between atoms: _230  and  _233
REMARK   91  A    between atoms: _233  and  _234
REMARK   92  A    between atoms: _234  and  _235
REMARK   93  A    between atoms: _240  and  _242
REMARK   94  A    between atoms: _242  and  _243
REMARK   95  A    between atoms: _242  and  _245
REMARK   96  A    between atoms: _245  and  _246
REMARK   97  A    between atoms: _249  and  _251
REMARK   98  A    between atoms: _251  and  _252
REMARK   99  A    between atoms: _251  and  _254
REMARK  100  A    between atoms: _254  and  _255
REMARK  101  A    between atoms: _258  and  _260
REMARK  102  A    between atoms: _260  and  _261
REMARK  103  A    between atoms: _260  and  _263
REMARK  104  A    between atoms: _263  and  _264
REMARK  105  A    between atoms: _267  and  _269
REMARK  106  A    between atoms: _269  and  _270
REMARK  107  A    between atoms: _269  and  _272
REMARK  108  A    between atoms: _272  and  _273
REMARK  109  A    between atoms: _275  and  _277
REMARK  110  A    between atoms: _277  and  _278
REMARK  111  A    between atoms: _277  and  _280
REMARK  112  A    between atoms: _283  and  _285
REMARK  113  A    between atoms: _285  and  _286
REMARK  114  A    between atoms: _285  and  _288
REMARK  115  A    between atoms: _288  and  _289
REMARK  116  A    between atoms: _289  and  _290
REMARK  117  A    between atoms: _290  and  _291
REMARK  118  A    between atoms: _291  and  _292
REMARK  119  A    between atoms: _297  and  _298
REMARK  120  A    between atoms: _303  and  _305
REMARK  121  A    between atoms: _305  and  _306
REMARK  122  A    between atoms: _305  and  _308
REMARK  123  A    between atoms: _308  and  _309
REMARK  124  A    between atoms: _314  and  _316
REMARK  125  A    between atoms: _316  and  _317
REMARK  126  A    between atoms: _316  and  _319
REMARK  127  A    between atoms: _319  and  _320
REMARK  128  A    between atoms: _323  and  _325
REMARK  129  A    between atoms: _325  and  _326
REMARK  130  A    between atoms: _325  and  _328
REMARK  131  A    between atoms: _331  and  _333
REMARK  132  A    between atoms: _333  and  _334
REMARK  133  A    between atoms: _336  and  _338
REMARK  134  A    between atoms: _338  and  _339
REMARK  135  A    between atoms: _338  and  _341
REMARK  136  A    between atoms: _341  and  _342
REMARK  137  A    between atoms: _342  and  _343
REMARK  138  A    between atoms: _343  and  _344
REMARK  139  A    between atoms: _344  and  _345
REMARK  140  A    between atoms: _349  and  _351
REMARK  141  A    between atoms: _351  and  _352
REMARK  142  A    between atoms: _351  and  _354
REMARK  143  A    between atoms: _354  and  _355
REMARK  144  A    between atoms: _358  and  _360
REMARK  145  A    between atoms: _360  and  _361
REMARK  146  A    between atoms: _364  and  _366
REMARK  147  A    between atoms: _366  and  _367
REMARK  148  A    between atoms: _369  and  _371
REMARK  149  A    between atoms: _371  and  _372
REMARK  150  A    between atoms: _371  and  _374
REMARK  151  A    between atoms: _374  and  _375
REMARK  152  A    between atoms: _378  and  _380
REMARK  153  A    between atoms: _380  and  _381
REMARK  154  A    between atoms: _380  and  _383
REMARK  155  A    between atoms: _383  and  _384
REMARK  156  A    between atoms: _387  and  _389
REMARK  157  A    between atoms: _389  and  _390
REMARK  158  A    between atoms: _393  and  _395
REMARK  159  A    between atoms: _395  and  _396
REMARK  160  A    between atoms: _395  and  _398
REMARK  161  A    between atoms: _398  and  _399
REMARK  162  A    between atoms: _399  and  _400
REMARK  163  A    between atoms: _403  and  _405
REMARK  164  A    between atoms: _405  and  _406
REMARK  165  A    between atoms: _405  and  _408
REMARK  166  A    between atoms: _411  and  _413
REMARK  167  A    between atoms: _413  and  _414
REMARK  168  A    between atoms: _413  and  _416
REMARK  169  A    between atoms: _416  and  _417
REMARK  170  A    between atoms: _420  and  _422
REMARK  171  A    between atoms: _422  and  _423
REMARK  172  A    between atoms: _425  and  _427
REMARK  173  A    between atoms: _427  and  _428
REMARK  174  A    between atoms: _427  and  _430
REMARK  175  A    between atoms: _433  and  _435
REMARK  176  A    between atoms: _435  and  _436
REMARK  177  A    between atoms: _438  and  _440
REMARK  178  A    between atoms: _440  and  _441
REMARK  179  A    between atoms: _440  and  _443
REMARK  180  A    between atoms: _443  and  _444
REMARK  181  A    between atoms: _447  and  _449
REMARK  182  A    between atoms: _449  and  _450
REMARK  183  A    between atoms: _449  and  _452
REMARK  184  A    between atoms: _452  and  _453
REMARK  185  A    between atoms: _458  and  _460
REMARK  186  A    between atoms: _460  and  _461
REMARK  187  A    between atoms: _460  and  _463
REMARK  188  A    between atoms: _466  and  _468
REMARK  189  A    between atoms: _468  and  _469
REMARK  190  A    between atoms: _468  and  _471
REMARK  191  A    between atoms: _471  and  _472
REMARK  192  A    between atoms: _472  and  _473
REMARK  193  A    between atoms: _478  and  _480
REMARK  194  A    between atoms: _480  and  _481
REMARK  195  A    between atoms: _485  and  _486
REMARK  196  A    between atoms: _491  and  _493
REMARK  197  A    between atoms: _493  and  _494
REMARK  198  A    between atoms: _493  and  _496
REMARK  199  A    between atoms: _496  and  _497
REMARK  200  A    between atoms: _497  and  _498
REMARK  201  A    between atoms: _501  and  _503
REMARK  202  A    between atoms: _503  and  _504
REMARK  203  A    between atoms: _503  and  _506
REMARK  204  A    between atoms: _509  and  _511
REMARK  205  A    between atoms: _511  and  _512
REMARK  206  A    between atoms: _511  and  _514
REMARK  207  A    between atoms: _514  and  _515
REMARK  208  A    between atoms: _519  and  _520
REMARK  209  A    between atoms: _525  and  _527
REMARK  210  A    between atoms: _527  and  _528
REMARK  211  A    between atoms: _527  and  _530
REMARK  212  A    between atoms: _530  and  _531
REMARK  213  A    between atoms: _534  and  _536
REMARK  214  A    between atoms: _536  and  _537
REMARK  215  A    between atoms: _540  and  _542
REMARK  216  A    between atoms: _542  and  _543
REMARK  217  A    between atoms: _542  and  _545
REMARK  218  A    between atoms: _545  and  _546
REMARK  219  A    between atoms: _549  and  _551
REMARK  220  A    between atoms: _551  and  _552
REMARK  221  A    between atoms: _551  and  _554
REMARK  222  A    between atoms: _554  and  _555
REMARK  223  A    between atoms: _557  and  _559
REMARK  224  A    between atoms: _559  and  _560
REMARK  225  A    between atoms: _562  and  _564
REMARK  226  A    between atoms: _564  and  _565
REMARK  227  A    between atoms: _564  and  _567
REMARK  228  A    between atoms: _567  and  _568
REMARK  229  A    between atoms: _571  and  _573
REMARK  230  A    between atoms: _573  and  _574
REMARK  231  A    between atoms: _573  and  _576
REMARK                            x       y       z     vdW  Elec       q    Type
REMARK                         _______ _______ _______ _____ _____    ______ ____
ROOT
ATOM      1  C   THR A   4       1.552 -13.579  17.492  0.00  0.00    +0.243 C 
ATOM      2  O   THR A   4       1.867 -14.741  17.729  0.00  0.00    -0.273 OA
ATOM      3  N   ASN A   5       1.382 -13.114  16.257  0.00  0.00    -0.297 N 
ATOM      4  H   ASN A   5       1.045 -12.140  16.117  0.00  0.00    +0.150 HD
ENDROOT
BRANCH   3   5
ATOM      5  CA  ASN A   5       1.662 -13.952  15.100  0.00  0.00    +0.158 C 
BRANCH   5   6
ATOM      6  C   ASN A   5       3.127 -14.361  15.062  0.00  0.00    +0.241 C 
ATOM      7  N   ALA A   6       4.015 -13.390  15.245  0.00  0.00    -0.297 N 
ATOM      8  H   ALA A   6       3.682 -12.412  15.364  0.00  0.00    +0.150 HD
ATOM      9  O   ASN A   5       3.443 -15.532  14.877  0.00  0.00    -0.273 OA
BRANCH   7  10
ATOM     10  CA  ALA A   6       5.446 -13.667  15.283  0.00  0.00    +0.149 C 
ATOM     11  CB  ALA A   6       6.226 -12.376  15.456  0.00  0.00    +0.031 C 
BRANCH  10  12
ATOM     12  C   ALA A   6       5.795 -14.654  16.398  0.00  0.00    +0.241 C 
ATOM     13  N   ASP A   7       5.144 -14.508  17.550  0.00  0.00    -0.297 N 
ATOM     14  H   ASP A   7       4.419 -13.767  17.632  0.00  0.00    +0.150 HD
ATOM     15  O   ALA A   6       6.628 -15.540  16.209  0.00  0.00    -0.273 OA
BRANCH  13  16
ATOM     16  CA  ASP A   7       5.422 -15.362  18.701  0.00  0.00    +0.160 C 
BRANCH  16  17
ATOM     17  C   ASP A   7       5.071 -16.824  18.426  0.00  0.00    +0.241 C 
ATOM     18  O   ASP A   7       5.846 -17.723  18.750  0.00  0.00    -0.273 OA
ATOM     19  N   LEU A   8       3.909 -17.066  17.823  0.00  0.00    -0.298 N 
ATOM     20  H   LEU A   8       3.291 -16.273  17.557  0.00  0.00    +0.150 HD
BRANCH  19  21
ATOM     21  CA  LEU A   8       3.495 -18.435  17.532  0.00  0.00    +0.137 C 
BRANCH  21  22
ATOM     22  C   LEU A   8       4.319 -19.037  16.399  0.00  0.00    +0.227 C 
ATOM     23  O   LEU A   8       4.596 -20.237  16.395  0.00  0.00    -0.286 OA
ENDBRANCH  21  22
BRANCH  21  24
ATOM     24  CB  LEU A   8       2.006 -18.493  17.190  0.00  0.00    +0.028 C 
BRANCH  24  25
ATOM     25  CG  LEU A   8       1.052 -18.408  18.383  0.00  0.00    +0.002 C 
ATOM     26  CD2 LEU A   8       1.541 -19.266  19.543  0.00  0.00    +0.000 C 
ATOM     27  CD1 LEU A   8      -0.356 -18.808  17.968  0.00  0.00    +0.000 C 
ENDBRANCH  24  25
ENDBRANCH  21  24
ENDBRANCH  19  21
ENDBRANCH  16  17
BRANCH  16  28
ATOM     28  CB  ASP A   7       4.667 -14.864  19.940  0.00  0.00    +0.143 C 
BRANCH  28  29
ATOM     29  CG  ASP A   7       5.189 -13.532  20.449  0.00  0.00    +0.367 C 
ATOM     30  OD2 ASP A   7       4.510 -12.902  21.288  0.00  0.00    -0.246 OA
ATOM     31  OD1 ASP A   7       6.286 -13.120  20.017  0.00  0.00    -0.246 OA
ENDBRANCH  28  29
ENDBRANCH  16  28
ENDBRANCH  13  16
ENDBRANCH  10  12
ENDBRANCH   7  10
ENDBRANCH   5   6
BRANCH   5  32
ATOM     32  CB  ASN A   5       1.284 -13.236  13.803  0.00  0.00    +0.114 C 
BRANCH  32  33
ATOM     33  CG  ASN A   5      -0.075 -13.656  13.284  0.00  0.00    +0.222 C 
ATOM     34  OD1 ASN A   5      -0.963 -14.003  14.061  0.00  0.00    -0.275 OA
ATOM     35  ND2 ASN A   5      -0.242 -13.642  11.965  0.00  0.00    -0.329 N 
ATOM     36 HD21 ASN A   5      -1.152 -13.932  11.553  0.00  0.00    +0.145 HD
ATOM     37 HD22 ASN A   5       0.537 -13.341  11.345  0.00  0.00    +0.145 HD
ENDBRANCH  32  33
ENDBRANCH   5  32
ENDBRANCH   3   5
BRANCH   1  38
ATOM     38  CA  THR A   4       1.328 -12.594  18.631  0.00  0.00    +0.176 C 
BRANCH  38  40
ATOM     39  C   SER A   3       3.045 -10.997  17.992  0.00  0.00    +0.243 C 
ATOM     40  N   THR A   4       1.769 -11.251  18.270  0.00  0.00    -0.295 N 
ATOM     41  H   THR A   4       1.074 -10.479  18.229  0.00  0.00    +0.150 HD
ATOM     42  O   SER A   3       3.921 -11.857  18.020  0.00  0.00    -0.273 OA
BRANCH  39  43
ATOM     43  CA  SER A   3       3.395  -9.565  17.628  0.00  0.00    +0.178 C 
BRANCH  43  45
ATOM     44  C   GLY A   2       4.587  -7.764  18.756  0.00  0.00    +0.243 C 
ATOM     45  N   SER A   3       4.415  -9.062  18.541  0.00  0.00    -0.295 N 
ATOM     46  H   SER A   3       5.026  -9.741  19.038  0.00  0.00    +0.150 HD
ATOM     47  O   GLY A   2       3.917  -6.903  18.196  0.00  0.00    -0.273 OA
BRANCH  44  48
ATOM     48  CA  GLY A   2       5.670  -7.391  19.750  0.00  0.00    +0.176 C 
BRANCH  48  51
ATOM     49  C   THR A   1       4.469  -7.759  21.822  0.00  0.00    +0.241 C 
ATOM     50  O   THR A   1       3.682  -6.843  21.584  0.00  0.00    -0.274 OA
ATOM     51  N   GLY A   2       5.478  -8.071  21.017  0.00  0.00    -0.295 N 
ATOM     52  H   GLY A   2       6.144  -8.818  21.301  0.00  0.00    +0.150 HD
BRANCH  49  53
ATOM     53  CA  THR A   1       4.332  -8.597  23.088  0.00  0.00    +0.172 C 
BRANCH  53  54
ATOM     54  N   THR A   1       3.370  -7.993  24.003  0.00  0.00    -0.236 NA
ATOM     55  H   THR A   1       2.638  -7.360  23.622  0.00  0.00    +0.142 HD
ENDBRANCH  53  54
BRANCH  53  56
ATOM     56  CB  THR A   1       3.936 -10.035  22.706  0.00  0.00    +0.135 C 
ATOM     57  CG2 THR A   1       2.725 -10.035  21.784  0.00  0.00    +0.034 C 
BRANCH  56  58
ATOM     58  OG1 THR A   1       5.036 -10.677  22.047  0.00  0.00    -0.383 OA
ATOM     59  HG1 THR A   1       4.779 -11.601  21.803  0.00  0.00    +0.210 HD
ENDBRANCH  56  58
ENDBRANCH  53  56
ENDBRANCH  49  53
ENDBRANCH  48  51
ENDBRANCH  44  48
ENDBRANCH  43  45
BRANCH  43  60
ATOM     60  CB  SER A   3       3.878  -9.492  16.178  0.00  0.00    +0.166 C 
BRANCH  60  61
ATOM     61  OG  SER A   3       3.096 -10.323  15.338  0.00  0.00    -0.380 OA
ATOM     62  H   SER A   3       2.151 -10.030  15.373  0.00  0.00    +0.211 HD
ENDBRANCH  60  61
ENDBRANCH  43  60
ENDBRANCH  39  43
ENDBRANCH  38  40
BRANCH  38  63
ATOM     63  CB  THR A   4      -0.156 -12.622  19.029  0.00  0.00    +0.137 C 
ATOM     64  CG2 THR A   4      -0.391 -11.771  20.269  0.00  0.00    +0.034 C 
BRANCH  63  65
ATOM     65  OG1 THR A   4      -0.953 -12.126  17.947  0.00  0.00    -0.382 OA
ATOM     66  HG1 THR A   4      -0.815 -12.695  17.149  0.00  0.00    +0.210 HD
ENDBRANCH  63  65
ENDBRANCH  38  63
ENDBRANCH   1  38
TORSDOF 28
REMARK  Name = ../refined-set-2016/4xu0/4xu0_pocket.pdb
REMARK  231 active torsions:
REMARK  status: ('A' for Active; 'I' for Inactive)
REMARK    1  A    between atoms: _1  and  _3
REMARK    2  A    between atoms: _3  and  _4
REMARK    3  A    between atoms: _3  and  _6
REMARK    4  A    between atoms: _6  and  _7
REMARK    5  A    between atoms: _10  and  _12
REMARK    6  A    between atoms: _12  and  _13
REMARK    7  A    between atoms: _15  and  _17
REMARK    8  A    between atoms: _17  and  _18
REMARK    9  A    between atoms: _17  and  _20
REMARK   10  A    between atoms: _20  and  _21
REMARK   11  A    between atoms: _23  and  _25
REMARK   12  A    between atoms: _25  and  _26
REMARK   13  A    between atoms: _25  and  _28
REMARK   14  A    between atoms: _28  and  _29
REMARK   15  A    between atoms: _32  and  _34
REMARK   16  A    between atoms: _34  and  _35
REMARK   17  A    between atoms: _34  and  _37
REMARK   18  A    between atoms: _37  and  _38
REMARK   19  A    between atoms: _43  and  _45
REMARK   20  A    between atoms: _45  and  _46
REMARK   21  A    between atoms: _49  and  _51
REMARK   22  A    between atoms: _51  and  _52
REMARK   23  A    between atoms: _51  and  _54
REMARK   24  A    between atoms: _54  and  _55
REMARK   25  A    between atoms: _58  and  _60
REMARK   26  A    between atoms: _60  and  _61
REMARK   27  A    between atoms: _60  and  _63
REMARK   28  A    between atoms: _63  and  _64
REMARK   29  A    between atoms: _67  and  _69
REMARK   30  A    between atoms: _69  and  _70
REMARK   31  A    between atoms: _69  and  _72
REMARK   32  A    between atoms: _72  and  _73
REMARK   33  A    between atoms: _76  and  _78
REMARK   34  A    between atoms: _78  and  _79
REMARK   35  A    between atoms: _82  and  _84
REMARK   36  A    between atoms: _84  and  _85
REMARK   37  A    between atoms: _84  and  _87
REMARK   38  A    between atoms: _87  and  _88
REMARK   39  A    between atoms: _88  and  _89
REMARK   40  A    between atoms: _94  and  _96
REMARK   41  A    between atoms: _96  and  _97
REMARK   42  A    between atoms: _96  and  _99
REMARK   43  A    between atoms: _99  and  _100
REMARK   44  A    between atoms: _103  and  _105
REMARK   45  A    between atoms: _105  and  _106
REMARK   46  A    between atoms: _109  and  _111
REMARK   47  A    between atoms: _111  and  _112
REMARK   48  A    between atoms: _114  and  _116
REMARK   49  A    between atoms: _116  and  _117
REMARK   50  A    between atoms: _116  and  _119
REMARK   51  A    between atoms: _119  and  _120
REMARK   52  A    between atoms: _120  and  _121
REMARK   53  A    between atoms: _121  and  _122
REMARK   54  A    between atoms: _131  and  _133
REMARK   55  A    between atoms: _133  and  _134
REMARK   56  A    between atoms: _136  and  _138
REMARK   57  A    between atoms: _138  and  _139
REMARK   58  A    between atoms: _138  and  _141
REMARK   59  A    between atoms: _141  and  _142
REMARK   60  A    between atoms: _142  and  _143
REMARK   61  A    between atoms: _143  and  _144
REMARK   62  A    between atoms: _153  and  _155
REMARK   63  A    between atoms: _155  and  _156
REMARK   64  A    between atoms: _155  and  _158
REMARK   65  A    between atoms: _158  and  _159
REMARK   66  A    between atoms: _164  and  _166
REMARK   67  A    between atoms: _166  and  _167
REMARK   68  A    between atoms: _169  and  _171
REMARK   69  A    between atoms: _171  and  _172
REMARK   70  A    between atoms: _171  and  _174
REMARK   71  A    between atoms: _174  and  _175
REMARK   72  A    between atoms: _175  and  _176
REMARK   73  A    between atoms: _176  and  _177
REMARK   74  A    between atoms: _186  and  _188
REMARK   75  A    between atoms: _188  and  _189
REMARK   76  A    between atoms: _191  and  _193
REMARK   77  A    between atoms: _193  and  _194
REMARK   78  A    between atoms: _193  and  _196
REMARK   79  A    between atoms: _196  and  _197
REMARK   80  A    between atoms: _207  and  _209
REMARK   81  A    between atoms: _209  and  _210
REMARK   82  A    between atoms: _213  and  _215
REMARK   83  A    between atoms: _215  and  _216
REMARK   84  A    between atoms: _219  and  _221
REMARK   85  A    between atoms: _221  and  _222
REMARK   86  A    between atoms: _221  and  _224
REMARK   87  A    between atoms: _224  and  _225
REMARK   88  A    between atoms: _228  and  _230
REMARK   89  A    between atoms: _230  and  _231
REMARK   90  A    between atoms: _230  and  _233
REMARK   91  A    between atoms: _233  and  _234
REMARK   92  A    between atoms: _234  and  _235
REMARK   93  A    between atoms: _240  and  _242
REMARK   94  A    between atoms: _242  and  _243
REMARK   95  A    between atoms: _242  and  _245
REMARK   96  A    between atoms: _245  and  _246
REMARK   97  A    between atoms: _249  and  _251
REMARK   98  A    between atoms: _251  and  _252
REMARK   99  A    between atoms: _251  and  _254
REMARK  100  A    between atoms: _254  and  _255
REMARK  101  A    between atoms: _258  and  _260
REMARK  102  A    between atoms: _260  and  _261
REMARK  103  A    between atoms: _260  and  _263
REMARK  104  A    between atoms: _263  and  _264
REMARK  105  A    between atoms: _267  and  _269
REMARK  106  A    between atoms: _269  and  _270
REMARK  107  A    between atoms: _269  and  _272
REMARK  108  A    between atoms: _272  and  _273
REMARK  109  A    between atoms: _275  and  _277
REMARK  110  A    between atoms: _277  and  _278
REMARK  111  A    between atoms: _277  and  _280
REMARK  112  A    between atoms: _283  and  _285
REMARK  113  A    between atoms: _285  and  _286
REMARK  114  A    between atoms: _285  and  _288
REMARK  115  A    between atoms: _288  and  _289
REMARK  116  A    between atoms: _289  and  _290
REMARK  117  A    between atoms: _290  and  _291
REMARK  118  A    between atoms: _291  and  _292
REMARK  119  A    between atoms: _297  and  _298
REMARK  120  A    between atoms: _303  and  _305
REMARK  121  A    between atoms: _305  and  _306
REMARK  122  A    between atoms: _305  and  _308
REMARK  123  A    between atoms: _308  and  _309
REMARK  124  A    between atoms: _314  and  _316
REMARK  125  A    between atoms: _316  and  _317
REMARK  126  A    between atoms: _316  and  _319
REMARK  127  A    between atoms: _319  and  _320
REMARK  128  A    between atoms: _323  and  _325
REMARK  129  A    between atoms: _325  and  _326
REMARK  130  A    between atoms: _325  and  _328
REMARK  131  A    between atoms: _331  and  _333
REMARK  132  A    between atoms: _333  and  _334
REMARK  133  A    between atoms: _336  and  _338
REMARK  134  A    between atoms: _338  and  _339
REMARK  135  A    between atoms: _338  and  _341
REMARK  136  A    between atoms: _341  and  _342
REMARK  137  A    between atoms: _342  and  _343
REMARK  138  A    between atoms: _343  and  _344
REMARK  139  A    between atoms: _344  and  _345
REMARK  140  A    between atoms: _349  and  _351
REMARK  141  A    between atoms: _351  and  _352
REMARK  142  A    between atoms: _351  and  _354
REMARK  143  A    between atoms: _354  and  _355
REMARK  144  A    between atoms: _358  and  _360
REMARK  145  A    between atoms: _360  and  _361
REMARK  146  A    between atoms: _364  and  _366
REMARK  147  A    between atoms: _366  and  _367
REMARK  148  A    between atoms: _369  and  _371
REMARK  149  A    between atoms: _371  and  _372
REMARK  150  A    between atoms: _371  and  _374
REMARK  151  A    between atoms: _374  and  _375
REMARK  152  A    between atoms: _378  and  _380
REMARK  153  A    between atoms: _380  and  _381
REMARK  154  A    between atoms: _380  and  _383
REMARK  155  A    between atoms: _383  and  _384
REMARK  156  A    between atoms: _387  and  _389
REMARK  157  A    between atoms: _389  and  _390
REMARK  158  A    between atoms: _393  and  _395
REMARK  159  A    between atoms: _395  and  _396
REMARK  160  A    between atoms: _395  and  _398
REMARK  161  A    between atoms: _398  and  _399
REMARK  162  A    between atoms: _399  and  _400
REMARK  163  A    between atoms: _403  and  _405
REMARK  164  A    between atoms: _405  and  _406
REMARK  165  A    between atoms: _405  and  _408
REMARK  166  A    between atoms: _411  and  _413
REMARK  167  A    between atoms: _413  and  _414
REMARK  168  A    between atoms: _413  and  _416
REMARK  169  A    between atoms: _416  and  _417
REMARK  170  A    between atoms: _420  and  _422
REMARK  171  A    between atoms: _422  and  _423
REMARK  172  A    between atoms: _425  and  _427
REMARK  173  A    between atoms: _427  and  _428
REMARK  174  A    between atoms: _427  and  _430
REMARK  175  A    between atoms: _433  and  _435
REMARK  176  A    between atoms: _435  and  _436
REMARK  177  A    between atoms: _438  and  _440
REMARK  178  A    between atoms: _440  and  _441
REMARK  179  A    between atoms: _440  and  _443
REMARK  180  A    between atoms: _443  and  _444
REMARK  181  A    between atoms: _447  and  _449
REMARK  182  A    between atoms: _449  and  _450
REMARK  183  A    between atoms: _449  and  _452
REMARK  184  A    between atoms: _452  and  _453
REMARK  185  A    between atoms: _458  and  _460
REMARK  186  A    between atoms: _460  and  _461
REMARK  187  A    between atoms: _460  and  _463
REMARK  188  A    between atoms: _466  and  _468
REMARK  189  A    between atoms: _468  and  _469
REMARK  190  A    between atoms: _468  and  _471
REMARK  191  A    between atoms: _471  and  _472
REMARK  192  A    between atoms: _472  and  _473
REMARK  193  A    between atoms: _478  and  _480
REMARK  194  A    between atoms: _480  and  _481
REMARK  195  A    between atoms: _485  and  _486
REMARK  196  A    between atoms: _491  and  _493
REMARK  197  A    between atoms: _493  and  _494
REMARK  198  A    between atoms: _493  and  _496
REMARK  199  A    between atoms: _496  and  _497
REMARK  200  A    between atoms: _497  and  _498
REMARK  201  A    between atoms: _501  and  _503
REMARK  202  A    between atoms: _503  and  _504
REMARK  203  A    between atoms: _503  and  _506
REMARK  204  A    between atoms: _509  and  _511
REMARK  205  A    between atoms: _511  and  _512
REMARK  206  A    between atoms: _511  and  _514
REMARK  207  A    between atoms: _514  and  _515
REMARK  208  A    between atoms: _519  and  _520
REMARK  209  A    between atoms: _525  and  _527
REMARK  210  A    between atoms: _527  and  _528
REMARK  211  A    between atoms: _527  and  _530
REMARK  212  A    between atoms: _530  and  _531
REMARK  213  A    between atoms: _534  and  _536
REMARK  214  A    between atoms: _536  and  _537
REMARK  215  A    between atoms: _540  and  _542
REMARK  216  A    between atoms: _542  and  _543
REMARK  217  A    between atoms: _542  and  _545
REMARK  218  A    between atoms: _545  and  _546
REMARK  219  A    between atoms: _549  and  _551
REMARK  220  A    between atoms: _551  and  _552
REMARK  221  A    between atoms: _551  and  _554
REMARK  222  A    between atoms: _554  and  _555
REMARK  223  A    between atoms: _557  and  _559
REMARK  224  A    between atoms: _559  and  _560
REMARK  225  A    between atoms: _562  and  _564
REMARK  226  A    between atoms: _564  and  _565
REMARK  227  A    between atoms: _564  and  _567
REMARK  228  A    between atoms: _567  and  _568
REMARK  229  A    between atoms: _571  and  _573
REMARK  230  A    between atoms: _573  and  _574
REMARK  231  A    between atoms: _573  and  _576
REMARK                            x       y       z     vdW  Elec       q    Type
REMARK                         _______ _______ _______ _____ _____    ______ ____
ROOT
ATOM      1  CA  LEU A   1      -2.074 -16.713  22.295  0.00  0.00    +0.133 C 
ENDROOT
BRANCH   1   2
ATOM      2  N   LEU A   1      -2.845 -17.746  21.617  0.00  0.00    -0.239 NA
ATOM      3  H   LEU A   1      -3.115 -17.610  20.622  0.00  0.00    +0.142 HD
ENDBRANCH   1   2
BRANCH   1   4
ATOM      4  C   LEU A   1      -2.788 -15.371  22.206  0.00  0.00    +0.224 C 
ATOM      5  O   LEU A   1      -3.023 -14.856  21.115  0.00  0.00    -0.287 OA
ENDBRANCH   1   4
BRANCH   1   6
ATOM      6  CB  LEU A   1      -0.669 -16.599  21.704  0.00  0.00    +0.025 C 
BRANCH   6   7
ATOM      7  CG  LEU A   1       0.181 -15.455  22.265  0.00  0.00    +0.002 C 
ATOM      8  CD2 LEU A   1       0.457 -15.647  23.752  0.00  0.00    +0.000 C 
ATOM      9  CD1 LEU A   1       1.478 -15.313  21.487  0.00  0.00    +0.000 C 
ENDBRANCH   6   7
ENDBRANCH   1   6
TORSDOF 4
REMARK  Name = ../refined-set-2016/4xu0/4xu0_pocket.pdb
REMARK  231 active torsions:
REMARK  status: ('A' for Active; 'I' for Inactive)
REMARK    1  A    between atoms: _1  and  _3
REMARK    2  A    between atoms: _3  and  _4
REMARK    3  A    between atoms: _3  and  _6
REMARK    4  A    between atoms: _6  and  _7
REMARK    5  A    between atoms: _10  and  _12
REMARK    6  A    between atoms: _12  and  _13
REMARK    7  A    between atoms: _15  and  _17
REMARK    8  A    between atoms: _17  and  _18
REMARK    9  A    between atoms: _17  and  _20
REMARK   10  A    between atoms: _20  and  _21
REMARK   11  A    between atoms: _23  and  _25
REMARK   12  A    between atoms: _25  and  _26
REMARK   13  A    between atoms: _25  and  _28
REMARK   14  A    between atoms: _28  and  _29
REMARK   15  A    between atoms: _32  and  _34
REMARK   16  A    between atoms: _34  and  _35
REMARK   17  A    between atoms: _34  and  _37
REMARK   18  A    between atoms: _37  and  _38
REMARK   19  A    between atoms: _43  and  _45
REMARK   20  A    between atoms: _45  and  _46
REMARK   21  A    between atoms: _49  and  _51
REMARK   22  A    between atoms: _51  and  _52
REMARK   23  A    between atoms: _51  and  _54
REMARK   24  A    between atoms: _54  and  _55
REMARK   25  A    between atoms: _58  and  _60
REMARK   26  A    between atoms: _60  and  _61
REMARK   27  A    between atoms: _60  and  _63
REMARK   28  A    between atoms: _63  and  _64
REMARK   29  A    between atoms: _67  and  _69
REMARK   30  A    between atoms: _69  and  _70
REMARK   31  A    between atoms: _69  and  _72
REMARK   32  A    between atoms: _72  and  _73
REMARK   33  A    between atoms: _76  and  _78
REMARK   34  A    between atoms: _78  and  _79
REMARK   35  A    between atoms: _82  and  _84
REMARK   36  A    between atoms: _84  and  _85
REMARK   37  A    between atoms: _84  and  _87
REMARK   38  A    between atoms: _87  and  _88
REMARK   39  A    between atoms: _88  and  _89
REMARK   40  A    between atoms: _94  and  _96
REMARK   41  A    between atoms: _96  and  _97
REMARK   42  A    between atoms: _96  and  _99
REMARK   43  A    between atoms: _99  and  _100
REMARK   44  A    between atoms: _103  and  _105
REMARK   45  A    between atoms: _105  and  _106
REMARK   46  A    between atoms: _109  and  _111
REMARK   47  A    between atoms: _111  and  _112
REMARK   48  A    between atoms: _114  and  _116
REMARK   49  A    between atoms: _116  and  _117
REMARK   50  A    between atoms: _116  and  _119
REMARK   51  A    between atoms: _119  and  _120
REMARK   52  A    between atoms: _120  and  _121
REMARK   53  A    between atoms: _121  and  _122
REMARK   54  A    between atoms: _131  and  _133
REMARK   55  A    between atoms: _133  and  _134
REMARK   56  A    between atoms: _136  and  _138
REMARK   57  A    between atoms: _138  and  _139
REMARK   58  A    between atoms: _138  and  _141
REMARK   59  A    between atoms: _141  and  _142
REMARK   60  A    between atoms: _142  and  _143
REMARK   61  A    between atoms: _143  and  _144
REMARK   62  A    between atoms: _153  and  _155
REMARK   63  A    between atoms: _155  and  _156
REMARK   64  A    between atoms: _155  and  _158
REMARK   65  A    between atoms: _158  and  _159
REMARK   66  A    between atoms: _164  and  _166
REMARK   67  A    between atoms: _166  and  _167
REMARK   68  A    between atoms: _169  and  _171
REMARK   69  A    between atoms: _171  and  _172
REMARK   70  A    between atoms: _171  and  _174
REMARK   71  A    between atoms: _174  and  _175
REMARK   72  A    between atoms: _175  and  _176
REMARK   73  A    between atoms: _176  and  _177
REMARK   74  A    between atoms: _186  and  _188
REMARK   75  A    between atoms: _188  and  _189
REMARK   76  A    between atoms: _191  and  _193
REMARK   77  A    between atoms: _193  and  _194
REMARK   78  A    between atoms: _193  and  _196
REMARK   79  A    between atoms: _196  and  _197
REMARK   80  A    between atoms: _207  and  _209
REMARK   81  A    between atoms: _209  and  _210
REMARK   82  A    between atoms: _213  and  _215
REMARK   83  A    between atoms: _215  and  _216
REMARK   84  A    between atoms: _219  and  _221
REMARK   85  A    between atoms: _221  and  _222
REMARK   86  A    between atoms: _221  and  _224
REMARK   87  A    between atoms: _224  and  _225
REMARK   88  A    between atoms: _228  and  _230
REMARK   89  A    between atoms: _230  and  _231
REMARK   90  A    between atoms: _230  and  _233
REMARK   91  A    between atoms: _233  and  _234
REMARK   92  A    between atoms: _234  and  _235
REMARK   93  A    between atoms: _240  and  _242
REMARK   94  A    between atoms: _242  and  _243
REMARK   95  A    between atoms: _242  and  _245
REMARK   96  A    between atoms: _245  and  _246
REMARK   97  A    between atoms: _249  and  _251
REMARK   98  A    between atoms: _251  and  _252
REMARK   99  A    between atoms: _251  and  _254
REMARK  100  A    between atoms: _254  and  _255
REMARK  101  A    between atoms: _258  and  _260
REMARK  102  A    between atoms: _260  and  _261
REMARK  103  A    between atoms: _260  and  _263
REMARK  104  A    between atoms: _263  and  _264
REMARK  105  A    between atoms: _267  and  _269
REMARK  106  A    between atoms: _269  and  _270
REMARK  107  A    between atoms: _269  and  _272
REMARK  108  A    between atoms: _272  and  _273
REMARK  109  A    between atoms: _275  and  _277
REMARK  110  A    between atoms: _277  and  _278
REMARK  111  A    between atoms: _277  and  _280
REMARK  112  A    between atoms: _283  and  _285
REMARK  113  A    between atoms: _285  and  _286
REMARK  114  A    between atoms: _285  and  _288
REMARK  115  A    between atoms: _288  and  _289
REMARK  116  A    between atoms: _289  and  _290
REMARK  117  A    between atoms: _290  and  _291
REMARK  118  A    between atoms: _291  and  _292
REMARK  119  A    between atoms: _297  and  _298
REMARK  120  A    between atoms: _303  and  _305
REMARK  121  A    between atoms: _305  and  _306
REMARK  122  A    between atoms: _305  and  _308
REMARK  123  A    between atoms: _308  and  _309
REMARK  124  A    between atoms: _314  and  _316
REMARK  125  A    between atoms: _316  and  _317
REMARK  126  A    between atoms: _316  and  _319
REMARK  127  A    between atoms: _319  and  _320
REMARK  128  A    between atoms: _323  and  _325
REMARK  129  A    between atoms: _325  and  _326
REMARK  130  A    between atoms: _325  and  _328
REMARK  131  A    between atoms: _331  and  _333
REMARK  132  A    between atoms: _333  and  _334
REMARK  133  A    between atoms: _336  and  _338
REMARK  134  A    between atoms: _338  and  _339
REMARK  135  A    between atoms: _338  and  _341
REMARK  136  A    between atoms: _341  and  _342
REMARK  137  A    between atoms: _342  and  _343
REMARK  138  A    between atoms: _343  and  _344
REMARK  139  A    between atoms: _344  and  _345
REMARK  140  A    between atoms: _349  and  _351
REMARK  141  A    between atoms: _351  and  _352
REMARK  142  A    between atoms: _351  and  _354
REMARK  143  A    between atoms: _354  and  _355
REMARK  144  A    between atoms: _358  and  _360
REMARK  145  A    between atoms: _360  and  _361
REMARK  146  A    between atoms: _364  and  _366
REMARK  147  A    between atoms: _366  and  _367
REMARK  148  A    between atoms: _369  and  _371
REMARK  149  A    between atoms: _371  and  _372
REMARK  150  A    between atoms: _371  and  _374
REMARK  151  A    between atoms: _374  and  _375
REMARK  152  A    between atoms: _378  and  _380
REMARK  153  A    between atoms: _380  and  _381
REMARK  154  A    between atoms: _380  and  _383
REMARK  155  A    between atoms: _383  and  _384
REMARK  156  A    between atoms: _387  and  _389
REMARK  157  A    between atoms: _389  and  _390
REMARK  158  A    between atoms: _393  and  _395
REMARK  159  A    between atoms: _395  and  _396
REMARK  160  A    between atoms: _395  and  _398
REMARK  161  A    between atoms: _398  and  _399
REMARK  162  A    between atoms: _399  and  _400
REMARK  163  A    between atoms: _403  and  _405
REMARK  164  A    between atoms: _405  and  _406
REMARK  165  A    between atoms: _405  and  _408
REMARK  166  A    between atoms: _411  and  _413
REMARK  167  A    between atoms: _413  and  _414
REMARK  168  A    between atoms: _413  and  _416
REMARK  169  A    between atoms: _416  and  _417
REMARK  170  A    between atoms: _420  and  _422
REMARK  171  A    between atoms: _422  and  _423
REMARK  172  A    between atoms: _425  and  _427
REMARK  173  A    between atoms: _427  and  _428
REMARK  174  A    between atoms: _427  and  _430
REMARK  175  A    between atoms: _433  and  _435
REMARK  176  A    between atoms: _435  and  _436
REMARK  177  A    between atoms: _438  and  _440
REMARK  178  A    between atoms: _440  and  _441
REMARK  179  A    between atoms: _440  and  _443
REMARK  180  A    between atoms: _443  and  _444
REMARK  181  A    between atoms: _447  and  _449
REMARK  182  A    between atoms: _449  and  _450
REMARK  183  A    between atoms: _449  and  _452
REMARK  184  A    between atoms: _452  and  _453
REMARK  185  A    between atoms: _458  and  _460
REMARK  186  A    between atoms: _460  and  _461
REMARK  187  A    between atoms: _460  and  _463
REMARK  188  A    between atoms: _466  and  _468
REMARK  189  A    between atoms: _468  and  _469
REMARK  190  A    between atoms: _468  and  _471
REMARK  191  A    between atoms: _471  and  _472
REMARK  192  A    between atoms: _472  and  _473
REMARK  193  A    between atoms: _478  and  _480
REMARK  194  A    between atoms: _480  and  _481
REMARK  195  A    between atoms: _485  and  _486
REMARK  196  A    between atoms: _491  and  _493
REMARK  197  A    between atoms: _493  and  _494
REMARK  198  A    between atoms: _493  and  _496
REMARK  199  A    between atoms: _496  and  _497
REMARK  200  A    between atoms: _497  and  _498
REMARK  201  A    between atoms: _501  and  _503
REMARK  202  A    between atoms: _503  and  _504
REMARK  203  A    between atoms: _503  and  _506
REMARK  204  A    between atoms: _509  and  _511
REMARK  205  A    between atoms: _511  and  _512
REMARK  206  A    between atoms: _511  and  _514
REMARK  207  A    between atoms: _514  and  _515
REMARK  208  A    between atoms: _519  and  _520
REMARK  209  A    between atoms: _525  and  _527
REMARK  210  A    between atoms: _527  and  _528
REMARK  211  A    between atoms: _527  and  _530
REMARK  212  A    between atoms: _530  and  _531
REMARK  213  A    between atoms: _534  and  _536
REMARK  214  A    between atoms: _536  and  _537
REMARK  215  A    between atoms: _540  and  _542
REMARK  216  A    between atoms: _542  and  _543
REMARK  217  A    between atoms: _542  and  _545
REMARK  218  A    between atoms: _545  and  _546
REMARK  219  A    between atoms: _549  and  _551
REMARK  220  A    between atoms: _551  and  _552
REMARK  221  A    between atoms: _551  and  _554
REMARK  222  A    between atoms: _554  and  _555
REMARK  223  A    between atoms: _557  and  _559
REMARK  224  A    between atoms: _559  and  _560
REMARK  225  A    between atoms: _562  and  _564
REMARK  226  A    between atoms: _564  and  _565
REMARK  227  A    between atoms: _564  and  _567
REMARK  228  A    between atoms: _567  and  _568
REMARK  229  A    between atoms: _571  and  _573
REMARK  230  A    between atoms: _573  and  _574
REMARK  231  A    between atoms: _573  and  _576
REMARK                            x       y       z     vdW  Elec       q    Type
REMARK                         _______ _______ _______ _____ _____    ______ ____
ROOT
ATOM      1  CA  ALA A   1      -2.057 -10.233  24.137  0.00  0.00    +0.133 C 
ATOM      2  CB  ALA A   1      -0.952  -9.789  23.194  0.00  0.00    +0.027 C 
ENDROOT
BRANCH   1   3
ATOM      3  N   ALA A   1      -2.842 -11.305  23.536  0.00  0.00    -0.239 NA
ATOM      4  H   ALA A   1      -3.342 -11.135  22.640  0.00  0.00    +0.142 HD
ENDBRANCH   1   3
BRANCH   1   5
ATOM      5  C   ALA A   1      -2.933  -9.046  24.512  0.00  0.00    +0.224 C 
ATOM      6  O   ALA A   1      -3.730  -8.570  23.700  0.00  0.00    -0.287 OA
ENDBRANCH   1   5
TORSDOF 2
REMARK  Name = ../refined-set-2016/4xu0/4xu0_pocket.pdb
REMARK  231 active torsions:
REMARK  status: ('A' for Active; 'I' for Inactive)
REMARK    1  A    between atoms: _1  and  _3
REMARK    2  A    between atoms: _3  and  _4
REMARK    3  A    between atoms: _3  and  _6
REMARK    4  A    between atoms: _6  and  _7
REMARK    5  A    between atoms: _10  and  _12
REMARK    6  A    between atoms: _12  and  _13
REMARK    7  A    between atoms: _15  and  _17
REMARK    8  A    between atoms: _17  and  _18
REMARK    9  A    between atoms: _17  and  _20
REMARK   10  A    between atoms: _20  and  _21
REMARK   11  A    between atoms: _23  and  _25
REMARK   12  A    between atoms: _25  and  _26
REMARK   13  A    between atoms: _25  and  _28
REMARK   14  A    between atoms: _28  and  _29
REMARK   15  A    between atoms: _32  and  _34
REMARK   16  A    between atoms: _34  and  _35
REMARK   17  A    between atoms: _34  and  _37
REMARK   18  A    between atoms: _37  and  _38
REMARK   19  A    between atoms: _43  and  _45
REMARK   20  A    between atoms: _45  and  _46
REMARK   21  A    between atoms: _49  and  _51
REMARK   22  A    between atoms: _51  and  _52
REMARK   23  A    between atoms: _51  and  _54
REMARK   24  A    between atoms: _54  and  _55
REMARK   25  A    between atoms: _58  and  _60
REMARK   26  A    between atoms: _60  and  _61
REMARK   27  A    between atoms: _60  and  _63
REMARK   28  A    between atoms: _63  and  _64
REMARK   29  A    between atoms: _67  and  _69
REMARK   30  A    between atoms: _69  and  _70
REMARK   31  A    between atoms: _69  and  _72
REMARK   32  A    between atoms: _72  and  _73
REMARK   33  A    between atoms: _76  and  _78
REMARK   34  A    between atoms: _78  and  _79
REMARK   35  A    between atoms: _82  and  _84
REMARK   36  A    between atoms: _84  and  _85
REMARK   37  A    between atoms: _84  and  _87
REMARK   38  A    between atoms: _87  and  _88
REMARK   39  A    between atoms: _88  and  _89
REMARK   40  A    between atoms: _94  and  _96
REMARK   41  A    between atoms: _96  and  _97
REMARK   42  A    between atoms: _96  and  _99
REMARK   43  A    between atoms: _99  and  _100
REMARK   44  A    between atoms: _103  and  _105
REMARK   45  A    between atoms: _105  and  _106
REMARK   46  A    between atoms: _109  and  _111
REMARK   47  A    between atoms: _111  and  _112
REMARK   48  A    between atoms: _114  and  _116
REMARK   49  A    between atoms: _116  and  _117
REMARK   50  A    between atoms: _116  and  _119
REMARK   51  A    between atoms: _119  and  _120
REMARK   52  A    between atoms: _120  and  _121
REMARK   53  A    between atoms: _121  and  _122
REMARK   54  A    between atoms: _131  and  _133
REMARK   55  A    between atoms: _133  and  _134
REMARK   56  A    between atoms: _136  and  _138
REMARK   57  A    between atoms: _138  and  _139
REMARK   58  A    between atoms: _138  and  _141
REMARK   59  A    between atoms: _141  and  _142
REMARK   60  A    between atoms: _142  and  _143
REMARK   61  A    between atoms: _143  and  _144
REMARK   62  A    between atoms: _153  and  _155
REMARK   63  A    between atoms: _155  and  _156
REMARK   64  A    between atoms: _155  and  _158
REMARK   65  A    between atoms: _158  and  _159
REMARK   66  A    between atoms: _164  and  _166
REMARK   67  A    between atoms: _166  and  _167
REMARK   68  A    between atoms: _169  and  _171
REMARK   69  A    between atoms: _171  and  _172
REMARK   70  A    between atoms: _171  and  _174
REMARK   71  A    between atoms: _174  and  _175
REMARK   72  A    between atoms: _175  and  _176
REMARK   73  A    between atoms: _176  and  _177
REMARK   74  A    between atoms: _186  and  _188
REMARK   75  A    between atoms: _188  and  _189
REMARK   76  A    between atoms: _191  and  _193
REMARK   77  A    between atoms: _193  and  _194
REMARK   78  A    between atoms: _193  and  _196
REMARK   79  A    between atoms: _196  and  _197
REMARK   80  A    between atoms: _207  and  _209
REMARK   81  A    between atoms: _209  and  _210
REMARK   82  A    between atoms: _213  and  _215
REMARK   83  A    between atoms: _215  and  _216
REMARK   84  A    between atoms: _219  and  _221
REMARK   85  A    between atoms: _221  and  _222
REMARK   86  A    between atoms: _221  and  _224
REMARK   87  A    between atoms: _224  and  _225
REMARK   88  A    between atoms: _228  and  _230
REMARK   89  A    between atoms: _230  and  _231
REMARK   90  A    between atoms: _230  and  _233
REMARK   91  A    between atoms: _233  and  _234
REMARK   92  A    between atoms: _234  and  _235
REMARK   93  A    between atoms: _240  and  _242
REMARK   94  A    between atoms: _242  and  _243
REMARK   95  A    between atoms: _242  and  _245
REMARK   96  A    between atoms: _245  and  _246
REMARK   97  A    between atoms: _249  and  _251
REMARK   98  A    between atoms: _251  and  _252
REMARK   99  A    between atoms: _251  and  _254
REMARK  100  A    between atoms: _254  and  _255
REMARK  101  A    between atoms: _258  and  _260
REMARK  102  A    between atoms: _260  and  _261
REMARK  103  A    between atoms: _260  and  _263
REMARK  104  A    between atoms: _263  and  _264
REMARK  105  A    between atoms: _267  and  _269
REMARK  106  A    between atoms: _269  and  _270
REMARK  107  A    between atoms: _269  and  _272
REMARK  108  A    between atoms: _272  and  _273
REMARK  109  A    between atoms: _275  and  _277
REMARK  110  A    between atoms: _277  and  _278
REMARK  111  A    between atoms: _277  and  _280
REMARK  112  A    between atoms: _283  and  _285
REMARK  113  A    between atoms: _285  and  _286
REMARK  114  A    between atoms: _285  and  _288
REMARK  115  A    between atoms: _288  and  _289
REMARK  116  A    between atoms: _289  and  _290
REMARK  117  A    between atoms: _290  and  _291
REMARK  118  A    between atoms: _291  and  _292
REMARK  119  A    between atoms: _297  and  _298
REMARK  120  A    between atoms: _303  and  _305
REMARK  121  A    between atoms: _305  and  _306
REMARK  122  A    between atoms: _305  and  _308
REMARK  123  A    between atoms: _308  and  _309
REMARK  124  A    between atoms: _314  and  _316
REMARK  125  A    between atoms: _316  and  _317
REMARK  126  A    between atoms: _316  and  _319
REMARK  127  A    between atoms: _319  and  _320
REMARK  128  A    between atoms: _323  and  _325
REMARK  129  A    between atoms: _325  and  _326
REMARK  130  A    between atoms: _325  and  _328
REMARK  131  A    between atoms: _331  and  _333
REMARK  132  A    between atoms: _333  and  _334
REMARK  133  A    between atoms: _336  and  _338
REMARK  134  A    between atoms: _338  and  _339
REMARK  135  A    between atoms: _338  and  _341
REMARK  136  A    between atoms: _341  and  _342
REMARK  137  A    between atoms: _342  and  _343
REMARK  138  A    between atoms: _343  and  _344
REMARK  139  A    between atoms: _344  and  _345
REMARK  140  A    between atoms: _349  and  _351
REMARK  141  A    between atoms: _351  and  _352
REMARK  142  A    between atoms: _351  and  _354
REMARK  143  A    between atoms: _354  and  _355
REMARK  144  A    between atoms: _358  and  _360
REMARK  145  A    between atoms: _360  and  _361
REMARK  146  A    between atoms: _364  and  _366
REMARK  147  A    between atoms: _366  and  _367
REMARK  148  A    between atoms: _369  and  _371
REMARK  149  A    between atoms: _371  and  _372
REMARK  150  A    between atoms: _371  and  _374
REMARK  151  A    between atoms: _374  and  _375
REMARK  152  A    between atoms: _378  and  _380
REMARK  153  A    between atoms: _380  and  _381
REMARK  154  A    between atoms: _380  and  _383
REMARK  155  A    between atoms: _383  and  _384
REMARK  156  A    between atoms: _387  and  _389
REMARK  157  A    between atoms: _389  and  _390
REMARK  158  A    between atoms: _393  and  _395
REMARK  159  A    between atoms: _395  and  _396
REMARK  160  A    between atoms: _395  and  _398
REMARK  161  A    between atoms: _398  and  _399
REMARK  162  A    between atoms: _399  and  _400
REMARK  163  A    between atoms: _403  and  _405
REMARK  164  A    between atoms: _405  and  _406
REMARK  165  A    between atoms: _405  and  _408
REMARK  166  A    between atoms: _411  and  _413
REMARK  167  A    between atoms: _413  and  _414
REMARK  168  A    between atoms: _413  and  _416
REMARK  169  A    between atoms: _416  and  _417
REMARK  170  A    between atoms: _420  and  _422
REMARK  171  A    between atoms: _422  and  _423
REMARK  172  A    between atoms: _425  and  _427
REMARK  173  A    between atoms: _427  and  _428
REMARK  174  A    between atoms: _427  and  _430
REMARK  175  A    between atoms: _433  and  _435
REMARK  176  A    between atoms: _435  and  _436
REMARK  177  A    between atoms: _438  and  _440
REMARK  178  A    between atoms: _440  and  _441
REMARK  179  A    between atoms: _440  and  _443
REMARK  180  A    between atoms: _443  and  _444
REMARK  181  A    between atoms: _447  and  _449
REMARK  182  A    between atoms: _449  and  _450
REMARK  183  A    between atoms: _449  and  _452
REMARK  184  A    between atoms: _452  and  _453
REMARK  185  A    between atoms: _458  and  _460
REMARK  186  A    between atoms: _460  and  _461
REMARK  187  A    between atoms: _460  and  _463
REMARK  188  A    between atoms: _466  and  _468
REMARK  189  A    between atoms: _468  and  _469
REMARK  190  A    between atoms: _468  and  _471
REMARK  191  A    between atoms: _471  and  _472
REMARK  192  A    between atoms: _472  and  _473
REMARK  193  A    between atoms: _478  and  _480
REMARK  194  A    between atoms: _480  and  _481
REMARK  195  A    between atoms: _485  and  _486
REMARK  196  A    between atoms: _491  and  _493
REMARK  197  A    between atoms: _493  and  _494
REMARK  198  A    between atoms: _493  and  _496
REMARK  199  A    between atoms: _496  and  _497
REMARK  200  A    between atoms: _497  and  _498
REMARK  201  A    between atoms: _501  and  _503
REMARK  202  A    between atoms: _503  and  _504
REMARK  203  A    between atoms: _503  and  _506
REMARK  204  A    between atoms: _509  and  _511
REMARK  205  A    between atoms: _511  and  _512
REMARK  206  A    between atoms: _511  and  _514
REMARK  207  A    between atoms: _514  and  _515
REMARK  208  A    between atoms: _519  and  _520
REMARK  209  A    between atoms: _525  and  _527
REMARK  210  A    between atoms: _527  and  _528
REMARK  211  A    between atoms: _527  and  _530
REMARK  212  A    between atoms: _530  and  _531
REMARK  213  A    between atoms: _534  and  _536
REMARK  214  A    between atoms: _536  and  _537
REMARK  215  A    between atoms: _540  and  _542
REMARK  216  A    between atoms: _542  and  _543
REMARK  217  A    between atoms: _542  and  _545
REMARK  218  A    between atoms: _545  and  _546
REMARK  219  A    between atoms: _549  and  _551
REMARK  220  A    between atoms: _551  and  _552
REMARK  221  A    between atoms: _551  and  _554
REMARK  222  A    between atoms: _554  and  _555
REMARK  223  A    between atoms: _557  and  _559
REMARK  224  A    between atoms: _559  and  _560
REMARK  225  A    between atoms: _562  and  _564
REMARK  226  A    between atoms: _564  and  _565
REMARK  227  A    between atoms: _564  and  _567
REMARK  228  A    between atoms: _567  and  _568
REMARK  229  A    between atoms: _571  and  _573
REMARK  230  A    between atoms: _573  and  _574
REMARK  231  A    between atoms: _573  and  _576
REMARK                            x       y       z     vdW  Elec       q    Type
REMARK                         _______ _______ _______ _____ _____    ______ ____
ROOT
ATOM      1  C   ARG A   7       0.259  -6.965   4.632  0.00  0.00    +0.241 C 
ATOM      2  O   ARG A   7       0.317  -5.741   4.748  0.00  0.00    -0.273 OA
ATOM      3  N   HIS A   8       1.045  -7.664   3.818  0.00  0.00    -0.297 N 
ATOM      4  H   HIS A   8       1.005  -8.702   3.859  0.00  0.00    +0.150 HD
ENDROOT
BRANCH   3   5
ATOM      5  CA  HIS A   8       1.962  -7.039   2.869  0.00  0.00    +0.155 C 
BRANCH   5   6
ATOM      6  C   HIS A   8       2.947  -6.075   3.527  0.00  0.00    +0.241 C 
ATOM      7  N   GLY A   9       3.449  -6.452   4.699  0.00  0.00    -0.295 N 
ATOM      8  H   GLY A   9       3.108  -7.332   5.135  0.00  0.00    +0.150 HD
ATOM      9  O   HIS A   8       3.242  -5.010   2.985  0.00  0.00    -0.273 OA
BRANCH   7  10
ATOM     10  CA  GLY A   9       4.459  -5.669   5.386  0.00  0.00    +0.176 C 
BRANCH  10  11
ATOM     11  C   GLY A   9       3.943  -4.418   6.073  0.00  0.00    +0.243 C 
ATOM     12  O   GLY A   9       4.728  -3.602   6.555  0.00  0.00    -0.273 OA
ATOM     13  N   ARG A  10       2.625  -4.260   6.123  0.00  0.00    -0.297 N 
ATOM     14  H   ARG A  10       2.006  -4.965   5.674  0.00  0.00    +0.150 HD
BRANCH  13  15
ATOM     15  CA  ARG A  10       2.035  -3.112   6.799  0.00  0.00    +0.149 C 
BRANCH  15  16
ATOM     16  C   ARG A  10       2.009  -3.337   8.305  0.00  0.00    +0.241 C 
ATOM     17  N   GLY A  11       1.561  -2.330   9.045  0.00  0.00    -0.295 N 
ATOM     18  H   GLY A  11       1.233  -1.460   8.579  0.00  0.00    +0.150 HD
ATOM     19  O   ARG A  10       2.391  -4.402   8.788  0.00  0.00    -0.273 OA
BRANCH  17  20
ATOM     20  CA  GLY A  11       1.521  -2.423  10.490  0.00  0.00    +0.176 C 
BRANCH  20  21
ATOM     21  C   GLY A  11       0.120  -2.563  11.052  0.00  0.00    +0.243 C 
ATOM     22  N   TRP A  12       0.047  -2.954  12.319  0.00  0.00    -0.297 N 
ATOM     23  H   TRP A  12       0.918  -3.251  12.804  0.00  0.00    +0.150 HD
ATOM     24  O   GLY A  11      -0.872  -2.341  10.358  0.00  0.00    -0.273 OA
BRANCH  22  25
ATOM     25  CA  TRP A  12      -1.211  -2.981  13.051  0.00  0.00    +0.153 C 
BRANCH  25  26
ATOM     26  C   TRP A  12      -1.017  -2.270  14.381  0.00  0.00    +0.241 C 
ATOM     27  O   TRP A  12      -0.169  -2.663  15.183  0.00  0.00    -0.273 OA
ATOM     28  N   ALA A  13      -1.797  -1.219  14.607  0.00  0.00    -0.297 N 
ATOM     29  H   ALA A  13      -2.524  -0.966  13.907  0.00  0.00    +0.150 HD
BRANCH  28  30
ATOM     30  CA  ALA A  13      -1.659  -0.412  15.812  0.00  0.00    +0.149 C 
ATOM     31  CB  ALA A  13      -1.836   1.060  15.483  0.00  0.00    +0.031 C 
BRANCH  30  32
ATOM     32  C   ALA A  13      -2.649  -0.834  16.891  0.00  0.00    +0.241 C 
ATOM     33  N   ALA A  14      -2.263  -0.627  18.145  0.00  0.00    -0.297 N 
ATOM     34  H   ALA A  14      -1.332  -0.200  18.324  0.00  0.00    +0.150 HD
ATOM     35  O   ALA A  13      -3.738  -1.329  16.595  0.00  0.00    -0.273 OA
BRANCH  33  36
ATOM     36  CA  ALA A  14      -3.108  -0.981  19.276  0.00  0.00    +0.149 C 
ATOM     37  CB  ALA A  14      -3.049  -2.482  19.527  0.00  0.00    +0.031 C 
BRANCH  36  38
ATOM     38  C   ALA A  14      -2.701  -0.225  20.533  0.00  0.00    +0.241 C 
ATOM     39  N   THR A  15      -3.658  -0.028  21.434  0.00  0.00    -0.296 N 
ATOM     40  H   THR A  15      -4.650  -0.186  21.164  0.00  0.00    +0.150 HD
ATOM     41  O   ALA A  14      -1.550   0.186  20.675  0.00  0.00    -0.273 OA
BRANCH  39  42
ATOM     42  CA  THR A  15      -3.351   0.404  22.792  0.00  0.00    +0.164 C 
BRANCH  42  43
ATOM     43  C   THR A  15      -3.820  -0.683  23.750  0.00  0.00    +0.229 C 
ATOM     44  O   THR A  15      -4.658  -1.510  23.390  0.00  0.00    -0.286 OA
ENDBRANCH  42  43
BRANCH  42  45
ATOM     45  CB  THR A  15      -4.014   1.746  23.158  0.00  0.00    +0.136 C 
ATOM     46  CG2 THR A  15      -3.552   2.851  22.218  0.00  0.00    +0.034 C 
BRANCH  45  47
ATOM     47  OG1 THR A  15      -5.440   1.619  23.090  0.00  0.00    -0.382 OA
ATOM     48  HG1 THR A  15      -5.859   2.484  23.326  0.00  0.00    +0.210 HD
ENDBRANCH  45  47
ENDBRANCH  42  45
ENDBRANCH  39  42
ENDBRANCH  36  38
ENDBRANCH  33  36
ENDBRANCH  30  32
ENDBRANCH  28  30
ENDBRANCH  25  26
BRANCH  25  49
ATOM     49  CB  TRP A  12      -1.695  -4.414  13.276  0.00  0.00    +0.057 C 
BRANCH  49  50
ATOM     50  CG  TRP A  12      -3.081  -4.490  13.848  0.00  0.00    -0.002 A 
ATOM     51  CD1 TRP A  12      -3.426  -4.774  15.139  0.00  0.00    +0.068 A 
ATOM     52  NE1 TRP A  12      -4.794  -4.749  15.280  0.00  0.00    -0.352 N 
ATOM     53  HE1 TRP A  12      -5.315  -4.933  16.161  0.00  0.00    +0.166 HD
ATOM     54  CE2 TRP A  12      -5.357  -4.443  14.072  0.00  0.00    +0.056 A 
ATOM     55  CZ2 TRP A  12      -6.700  -4.301  13.713  0.00  0.00    +0.017 A 
ATOM     56  CH2 TRP A  12      -6.976  -3.986  12.410  0.00  0.00    +0.001 A 
ATOM     57  CZ3 TRP A  12      -5.957  -3.810  11.468  0.00  0.00    +0.000 A 
ATOM     58  CE3 TRP A  12      -4.625  -3.947  11.820  0.00  0.00    +0.001 A 
ATOM     59  CD2 TRP A  12      -4.312  -4.271  13.144  0.00  0.00    +0.013 A 
ENDBRANCH  49  50
ENDBRANCH  25  49
ENDBRANCH  22  25
ENDBRANCH  20  21
ENDBRANCH  17  20
ENDBRANCH  15  16
BRANCH  15  60
ATOM     60  CB  ARG A  10       0.624  -2.836   6.277  0.00  0.00    +0.033 C 
BRANCH  60  61
ATOM     61  CG  ARG A  10       0.595  -2.269   4.866  0.00  0.00    +0.045 C 
BRANCH  61  62
ATOM     62  CD  ARG A  10      -0.796  -1.793   4.475  0.00  0.00    +0.174 C 
BRANCH  62  63
ATOM     63  NE  ARG A  10      -1.697  -2.901   4.170  0.00  0.00    -0.265 N 
ATOM     64  HE  ARG A  10      -2.184  -3.365   4.963  0.00  0.00    +0.259 HD
ATOM     65  CZ  ARG A  10      -1.935  -3.354   2.943  0.00  0.00    +0.342 C 
ATOM     66  NH2 ARG A  10      -2.771  -4.366   2.757  0.00  0.00    -0.292 N 
ATOM     67 HH21 ARG A  10      -3.242  -4.808   3.572  0.00  0.00    +0.255 HD
ATOM     68 HH22 ARG A  10      -2.955  -4.718   1.796  0.00  0.00    +0.255 HD
ATOM     69  NH1 ARG A  10      -1.338  -2.793   1.900  0.00  0.00    -0.292 N 
ATOM     70 HH11 ARG A  10      -0.683  -1.998   2.041  0.00  0.00    +0.255 HD
ATOM     71 HH12 ARG A  10      -1.525  -3.148   0.941  0.00  0.00    +0.255 HD
ENDBRANCH  62  63
ENDBRANCH  61  62
ENDBRANCH  60  61
ENDBRANCH  15  60
ENDBRANCH  13  15
ENDBRANCH  10  11
ENDBRANCH   7  10
ENDBRANCH   5   6
BRANCH   5  72
ATOM     72  CB  HIS A   8       1.171  -6.309   1.781  0.00  0.00    +0.076 C 
BRANCH  72  73
ATOM     73  CG  HIS A   8       0.059  -7.122   1.199  0.00  0.00    +0.082 A 
ATOM     74  CD2 HIS A   8      -1.284  -6.979   1.268  0.00  0.00    +0.115 A 
ATOM     75  NE2 HIS A   8      -1.845  -8.011   0.555  0.00  0.00    -0.221 NA
ATOM     76  CE1 HIS A   8      -0.873  -8.764   0.065  0.00  0.00    +0.199 A 
ATOM     77  ND1 HIS A   8       0.282  -8.253   0.438  0.00  0.00    -0.227 NA
ENDBRANCH  72  73
ENDBRANCH   5  72
ENDBRANCH   3   5
BRANCH   1  78
ATOM     78  CA  ARG A   7      -0.731  -7.779   5.457  0.00  0.00    +0.149 C 
BRANCH  78  81
ATOM     79  C   GLY A   6      -0.166  -6.991   7.679  0.00  0.00    +0.243 C 
ATOM     80  O   GLY A   6       0.949  -7.509   7.624  0.00  0.00    -0.273 OA
ATOM     81  N   ARG A   7      -1.053  -7.089   6.696  0.00  0.00    -0.297 N 
ATOM     82  H   ARG A   7      -1.995  -6.665   6.814  0.00  0.00    +0.150 HD
BRANCH  79  83
ATOM     83  CA  GLY A   6      -0.589  -6.204   8.903  0.00  0.00    +0.176 C 
BRANCH  83  86
ATOM     84  C   ARG A   5       0.595  -6.846  10.927  0.00  0.00    +0.241 C 
ATOM     85  O   ARG A   5      -0.327  -7.557  11.321  0.00  0.00    -0.273 OA
ATOM     86  N   GLY A   6       0.522  -6.103   9.828  0.00  0.00    -0.295 N 
ATOM     87  H   GLY A   6       1.286  -5.428   9.625  0.00  0.00    +0.150 HD
BRANCH  84  88
ATOM     88  CA  ARG A   5       1.899  -6.749  11.706  0.00  0.00    +0.149 C 
BRANCH  88  91
ATOM     89  C   GLY A   4       2.013  -5.469  13.763  0.00  0.00    +0.243 C 
ATOM     90  O   GLY A   4       2.518  -4.502  13.187  0.00  0.00    -0.273 OA
ATOM     91  N   ARG A   5       1.672  -6.588  13.134  0.00  0.00    -0.297 N 
ATOM     92  H   ARG A   5       1.235  -7.363  13.672  0.00  0.00    +0.150 HD
BRANCH  89  93
ATOM     93  CA  GLY A   4       1.752  -5.443  15.256  0.00  0.00    +0.176 C 
BRANCH  93  95
ATOM     94  C   ALA A   3       4.024  -4.968  15.989  0.00  0.00    +0.241 C 
ATOM     95  N   GLY A   4       2.727  -4.673  16.006  0.00  0.00    -0.295 N 
ATOM     96  H   GLY A   4       2.402  -3.865  16.575  0.00  0.00    +0.150 HD
ATOM     97  O   ALA A   3       4.503  -5.867  15.297  0.00  0.00    -0.273 OA
BRANCH  94  98
ATOM     98  CA  ALA A   3       4.911  -4.126  16.896  0.00  0.00    +0.149 C 
ATOM     99  CB  ALA A   3       6.328  -4.679  16.918  0.00  0.00    +0.031 C 
BRANCH  98 102
ATOM    100  C   THR A   2       4.277  -2.926  18.911  0.00  0.00    +0.243 C 
ATOM    101  O   THR A   2       4.670  -1.857  18.439  0.00  0.00    -0.273 OA
ATOM    102  N   ALA A   3       4.360  -4.074  18.247  0.00  0.00    -0.297 N 
ATOM    103  H   ALA A   3       4.027  -4.950  18.697  0.00  0.00    +0.150 HD
BRANCH 100 104
ATOM    104  CA  THR A   2       3.672  -2.973  20.317  0.00  0.00    +0.176 C 
BRANCH 104 106
ATOM    105  C   GLN A   1       1.547  -4.166  20.470  0.00  0.00    +0.238 C 
ATOM    106  N   THR A   2       2.871  -4.164  20.603  0.00  0.00    -0.295 N 
ATOM    107  H   THR A   2       3.349  -5.032  20.919  0.00  0.00    +0.150 HD
ATOM    108  O   GLN A   1       0.929  -3.265  19.904  0.00  0.00    -0.274 OA
BRANCH 105 109
ATOM    109  CA  GLN A   1       0.807  -5.367  21.055  0.00  0.00    +0.145 C 
BRANCH 109 110
ATOM    110  N   GLN A   1      -0.084  -4.934  22.125  0.00  0.00    -0.238 NA
ATOM    111  H   GLN A   1      -0.681  -4.095  21.978  0.00  0.00    +0.142 HD
ENDBRANCH 109 110
BRANCH 109 112
ATOM    112  CB  GLN A   1       0.018  -6.103  19.971  0.00  0.00    +0.036 C 
BRANCH 112 113
ATOM    113  CG  GLN A   1       0.875  -6.840  18.961  0.00  0.00    +0.087 C 
BRANCH 113 114
ATOM    114  CD  GLN A   1       0.049  -7.643  17.981  0.00  0.00    +0.219 C 
ATOM    115  OE1 GLN A   1       0.088  -8.873  17.984  0.00  0.00    -0.275 OA
ATOM    116  NE2 GLN A   1      -0.709  -6.952  17.137  0.00  0.00    -0.329 N 
ATOM    117 HE21 GLN A   1      -0.710  -5.913  17.171  0.00  0.00    +0.145 HD
ATOM    118 HE22 GLN A   1      -1.301  -7.450  16.442  0.00  0.00    +0.145 HD
ENDBRANCH 113 114
ENDBRANCH 112 113
ENDBRANCH 109 112
ENDBRANCH 105 109
ENDBRANCH 104 106
BRANCH 104 119
ATOM    119  CB  THR A   2       4.819  -2.834  21.336  0.00  0.00    +0.137 C 
ATOM    120  CG2 THR A   2       4.266  -2.728  22.747  0.00  0.00    +0.034 C 
BRANCH 119 121
ATOM    121  OG1 THR A   2       5.678  -3.977  21.249  0.00  0.00    -0.382 OA
ATOM    122  HG1 THR A   2       6.414  -3.886  21.905  0.00  0.00    +0.210 HD
ENDBRANCH 119 121
ENDBRANCH 104 119
ENDBRANCH 100 104
ENDBRANCH  98 102
ENDBRANCH  94  98
ENDBRANCH  93  95
ENDBRANCH  89  93
ENDBRANCH  88  91
BRANCH  88 123
ATOM    123  CB  ARG A   5       2.754  -7.987  11.441  0.00  0.00    +0.033 C 
BRANCH 123 124
ATOM    124  CG  ARG A   5       4.134  -7.929  12.066  0.00  0.00    +0.045 C 
BRANCH 124 125
ATOM    125  CD  ARG A   5       4.954  -9.158  11.679  0.00  0.00    +0.174 C 
BRANCH 125 126
ATOM    126  NE  ARG A   5       4.343 -10.394  12.157  0.00  0.00    -0.265 N 
ATOM    127  HE  ARG A   5       3.509 -10.318  12.774  0.00  0.00    +0.259 HD
ATOM    128  CZ  ARG A   5       4.784 -11.608  11.855  0.00  0.00    +0.342 C 
ATOM    129  NH2 ARG A   5       4.161 -12.678  12.340  0.00  0.00    -0.292 N 
ATOM    130 HH21 ARG A   5       3.330 -12.562  12.955  0.00  0.00    +0.255 HD
ATOM    131 HH22 ARG A   5       4.505 -13.631  12.105  0.00  0.00    +0.255 HD
ATOM    132  NH1 ARG A   5       5.847 -11.741  11.067  0.00  0.00    -0.292 N 
ATOM    133 HH11 ARG A   5       6.200 -12.689  10.825  0.00  0.00    +0.255 HD
ATOM    134 HH12 ARG A   5       6.326 -10.897  10.693  0.00  0.00    +0.255 HD
ENDBRANCH 125 126
ENDBRANCH 124 125
ENDBRANCH 123 124
ENDBRANCH  88 123
ENDBRANCH  84  88
ENDBRANCH  83  86
ENDBRANCH  79  83
ENDBRANCH  78  81
BRANCH  78 135
ATOM    135  CB  ARG A   7      -2.000  -8.056   4.648  0.00  0.00    +0.033 C 
BRANCH 135 136
ATOM    136  CG  ARG A   7      -2.978  -8.983   5.353  0.00  0.00    +0.045 C 
BRANCH 136 137
ATOM    137  CD  ARG A   7      -4.090  -9.461   4.429  0.00  0.00    +0.174 C 
BRANCH 137 138
ATOM    138  NE  ARG A   7      -5.036  -8.403   4.086  0.00  0.00    -0.265 N 
ATOM    139  CZ  ARG A   7      -6.088  -8.071   4.828  0.00  0.00    +0.342 C 
ATOM    140  NH2 ARG A   7      -6.329  -8.702   5.970  0.00  0.00    -0.292 N 
ATOM    141 HH21 ARG A   7      -7.154  -8.438   6.546  0.00  0.00    +0.255 HD
ATOM    142 HH22 ARG A   7      -5.693  -9.461   6.289  0.00  0.00    +0.255 HD
ATOM    143  NH1 ARG A   7      -6.897  -7.097   4.433  0.00  0.00    -0.292 N 
ATOM    144 HH11 ARG A   7      -7.720  -6.837   5.013  0.00  0.00    +0.255 HD
ATOM    145 HH12 ARG A   7      -6.708  -6.593   3.543  0.00  0.00    +0.255 HD
ATOM    146  HE  ARG A   7      -4.877  -7.875   3.204  0.00  0.00    +0.259 HD
ENDBRANCH 137 138
ENDBRANCH 136 137
ENDBRANCH 135 136
ENDBRANCH  78 135
ENDBRANCH   1  78
TORSDOF 53
REMARK  Name = ../refined-set-2016/4xu0/4xu0_pocket.pdb
REMARK  231 active torsions:
REMARK  status: ('A' for Active; 'I' for Inactive)
REMARK    1  A    between atoms: _1  and  _3
REMARK    2  A    between atoms: _3  and  _4
REMARK    3  A    between atoms: _3  and  _6
REMARK    4  A    between atoms: _6  and  _7
REMARK    5  A    between atoms: _10  and  _12
REMARK    6  A    between atoms: _12  and  _13
REMARK    7  A    between atoms: _15  and  _17
REMARK    8  A    between atoms: _17  and  _18
REMARK    9  A    between atoms: _17  and  _20
REMARK   10  A    between atoms: _20  and  _21
REMARK   11  A    between atoms: _23  and  _25
REMARK   12  A    between atoms: _25  and  _26
REMARK   13  A    between atoms: _25  and  _28
REMARK   14  A    between atoms: _28  and  _29
REMARK   15  A    between atoms: _32  and  _34
REMARK   16  A    between atoms: _34  and  _35
REMARK   17  A    between atoms: _34  and  _37
REMARK   18  A    between atoms: _37  and  _38
REMARK   19  A    between atoms: _43  and  _45
REMARK   20  A    between atoms: _45  and  _46
REMARK   21  A    between atoms: _49  and  _51
REMARK   22  A    between atoms: _51  and  _52
REMARK   23  A    between atoms: _51  and  _54
REMARK   24  A    between atoms: _54  and  _55
REMARK   25  A    between atoms: _58  and  _60
REMARK   26  A    between atoms: _60  and  _61
REMARK   27  A    between atoms: _60  and  _63
REMARK   28  A    between atoms: _63  and  _64
REMARK   29  A    between atoms: _67  and  _69
REMARK   30  A    between atoms: _69  and  _70
REMARK   31  A    between atoms: _69  and  _72
REMARK   32  A    between atoms: _72  and  _73
REMARK   33  A    between atoms: _76  and  _78
REMARK   34  A    between atoms: _78  and  _79
REMARK   35  A    between atoms: _82  and  _84
REMARK   36  A    between atoms: _84  and  _85
REMARK   37  A    between atoms: _84  and  _87
REMARK   38  A    between atoms: _87  and  _88
REMARK   39  A    between atoms: _88  and  _89
REMARK   40  A    between atoms: _94  and  _96
REMARK   41  A    between atoms: _96  and  _97
REMARK   42  A    between atoms: _96  and  _99
REMARK   43  A    between atoms: _99  and  _100
REMARK   44  A    between atoms: _103  and  _105
REMARK   45  A    between atoms: _105  and  _106
REMARK   46  A    between atoms: _109  and  _111
REMARK   47  A    between atoms: _111  and  _112
REMARK   48  A    between atoms: _114  and  _116
REMARK   49  A    between atoms: _116  and  _117
REMARK   50  A    between atoms: _116  and  _119
REMARK   51  A    between atoms: _119  and  _120
REMARK   52  A    between atoms: _120  and  _121
REMARK   53  A    between atoms: _121  and  _122
REMARK   54  A    between atoms: _131  and  _133
REMARK   55  A    between atoms: _133  and  _134
REMARK   56  A    between atoms: _136  and  _138
REMARK   57  A    between atoms: _138  and  _139
REMARK   58  A    between atoms: _138  and  _141
REMARK   59  A    between atoms: _141  and  _142
REMARK   60  A    between atoms: _142  and  _143
REMARK   61  A    between atoms: _143  and  _144
REMARK   62  A    between atoms: _153  and  _155
REMARK   63  A    between atoms: _155  and  _156
REMARK   64  A    between atoms: _155  and  _158
REMARK   65  A    between atoms: _158  and  _159
REMARK   66  A    between atoms: _164  and  _166
REMARK   67  A    between atoms: _166  and  _167
REMARK   68  A    between atoms: _169  and  _171
REMARK   69  A    between atoms: _171  and  _172
REMARK   70  A    between atoms: _171  and  _174
REMARK   71  A    between atoms: _174  and  _175
REMARK   72  A    between atoms: _175  and  _176
REMARK   73  A    between atoms: _176  and  _177
REMARK   74  A    between atoms: _186  and  _188
REMARK   75  A    between atoms: _188  and  _189
REMARK   76  A    between atoms: _191  and  _193
REMARK   77  A    between atoms: _193  and  _194
REMARK   78  A    between atoms: _193  and  _196
REMARK   79  A    between atoms: _196  and  _197
REMARK   80  A    between atoms: _207  and  _209
REMARK   81  A    between atoms: _209  and  _210
REMARK   82  A    between atoms: _213  and  _215
REMARK   83  A    between atoms: _215  and  _216
REMARK   84  A    between atoms: _219  and  _221
REMARK   85  A    between atoms: _221  and  _222
REMARK   86  A    between atoms: _221  and  _224
REMARK   87  A    between atoms: _224  and  _225
REMARK   88  A    between atoms: _228  and  _230
REMARK   89  A    between atoms: _230  and  _231
REMARK   90  A    between atoms: _230  and  _233
REMARK   91  A    between atoms: _233  and  _234
REMARK   92  A    between atoms: _234  and  _235
REMARK   93  A    between atoms: _240  and  _242
REMARK   94  A    between atoms: _242  and  _243
REMARK   95  A    between atoms: _242  and  _245
REMARK   96  A    between atoms: _245  and  _246
REMARK   97  A    between atoms: _249  and  _251
REMARK   98  A    between atoms: _251  and  _252
REMARK   99  A    between atoms: _251  and  _254
REMARK  100  A    between atoms: _254  and  _255
REMARK  101  A    between atoms: _258  and  _260
REMARK  102  A    between atoms: _260  and  _261
REMARK  103  A    between atoms: _260  and  _263
REMARK  104  A    between atoms: _263  and  _264
REMARK  105  A    between atoms: _267  and  _269
REMARK  106  A    between atoms: _269  and  _270
REMARK  107  A    between atoms: _269  and  _272
REMARK  108  A    between atoms: _272  and  _273
REMARK  109  A    between atoms: _275  and  _277
REMARK  110  A    between atoms: _277  and  _278
REMARK  111  A    between atoms: _277  and  _280
REMARK  112  A    between atoms: _283  and  _285
REMARK  113  A    between atoms: _285  and  _286
REMARK  114  A    between atoms: _285  and  _288
REMARK  115  A    between atoms: _288  and  _289
REMARK  116  A    between atoms: _289  and  _290
REMARK  117  A    between atoms: _290  and  _291
REMARK  118  A    between atoms: _291  and  _292
REMARK  119  A    between atoms: _297  and  _298
REMARK  120  A    between atoms: _303  and  _305
REMARK  121  A    between atoms: _305  and  _306
REMARK  122  A    between atoms: _305  and  _308
REMARK  123  A    between atoms: _308  and  _309
REMARK  124  A    between atoms: _314  and  _316
REMARK  125  A    between atoms: _316  and  _317
REMARK  126  A    between atoms: _316  and  _319
REMARK  127  A    between atoms: _319  and  _320
REMARK  128  A    between atoms: _323  and  _325
REMARK  129  A    between atoms: _325  and  _326
REMARK  130  A    between atoms: _325  and  _328
REMARK  131  A    between atoms: _331  and  _333
REMARK  132  A    between atoms: _333  and  _334
REMARK  133  A    between atoms: _336  and  _338
REMARK  134  A    between atoms: _338  and  _339
REMARK  135  A    between atoms: _338  and  _341
REMARK  136  A    between atoms: _341  and  _342
REMARK  137  A    between atoms: _342  and  _343
REMARK  138  A    between atoms: _343  and  _344
REMARK  139  A    between atoms: _344  and  _345
REMARK  140  A    between atoms: _349  and  _351
REMARK  141  A    between atoms: _351  and  _352
REMARK  142  A    between atoms: _351  and  _354
REMARK  143  A    between atoms: _354  and  _355
REMARK  144  A    between atoms: _358  and  _360
REMARK  145  A    between atoms: _360  and  _361
REMARK  146  A    between atoms: _364  and  _366
REMARK  147  A    between atoms: _366  and  _367
REMARK  148  A    between atoms: _369  and  _371
REMARK  149  A    between atoms: _371  and  _372
REMARK  150  A    between atoms: _371  and  _374
REMARK  151  A    between atoms: _374  and  _375
REMARK  152  A    between atoms: _378  and  _380
REMARK  153  A    between atoms: _380  and  _381
REMARK  154  A    between atoms: _380  and  _383
REMARK  155  A    between atoms: _383  and  _384
REMARK  156  A    between atoms: _387  and  _389
REMARK  157  A    between atoms: _389  and  _390
REMARK  158  A    between atoms: _393  and  _395
REMARK  159  A    between atoms: _395  and  _396
REMARK  160  A    between atoms: _395  and  _398
REMARK  161  A    between atoms: _398  and  _399
REMARK  162  A    between atoms: _399  and  _400
REMARK  163  A    between atoms: _403  and  _405
REMARK  164  A    between atoms: _405  and  _406
REMARK  165  A    between atoms: _405  and  _408
REMARK  166  A    between atoms: _411  and  _413
REMARK  167  A    between atoms: _413  and  _414
REMARK  168  A    between atoms: _413  and  _416
REMARK  169  A    between atoms: _416  and  _417
REMARK  170  A    between atoms: _420  and  _422
REMARK  171  A    between atoms: _422  and  _423
REMARK  172  A    between atoms: _425  and  _427
REMARK  173  A    between atoms: _427  and  _428
REMARK  174  A    between atoms: _427  and  _430
REMARK  175  A    between atoms: _433  and  _435
REMARK  176  A    between atoms: _435  and  _436
REMARK  177  A    between atoms: _438  and  _440
REMARK  178  A    between atoms: _440  and  _441
REMARK  179  A    between atoms: _440  and  _443
REMARK  180  A    between atoms: _443  and  _444
REMARK  181  A    between atoms: _447  and  _449
REMARK  182  A    between atoms: _449  and  _450
REMARK  183  A    between atoms: _449  and  _452
REMARK  184  A    between atoms: _452  and  _453
REMARK  185  A    between atoms: _458  and  _460
REMARK  186  A    between atoms: _460  and  _461
REMARK  187  A    between atoms: _460  and  _463
REMARK  188  A    between atoms: _466  and  _468
REMARK  189  A    between atoms: _468  and  _469
REMARK  190  A    between atoms: _468  and  _471
REMARK  191  A    between atoms: _471  and  _472
REMARK  192  A    between atoms: _472  and  _473
REMARK  193  A    between atoms: _478  and  _480
REMARK  194  A    between atoms: _480  and  _481
REMARK  195  A    between atoms: _485  and  _486
REMARK  196  A    between atoms: _491  and  _493
REMARK  197  A    between atoms: _493  and  _494
REMARK  198  A    between atoms: _493  and  _496
REMARK  199  A    between atoms: _496  and  _497
REMARK  200  A    between atoms: _497  and  _498
REMARK  201  A    between atoms: _501  and  _503
REMARK  202  A    between atoms: _503  and  _504
REMARK  203  A    between atoms: _503  and  _506
REMARK  204  A    between atoms: _509  and  _511
REMARK  205  A    between atoms: _511  and  _512
REMARK  206  A    between atoms: _511  and  _514
REMARK  207  A    between atoms: _514  and  _515
REMARK  208  A    between atoms: _519  and  _520
REMARK  209  A    between atoms: _525  and  _527
REMARK  210  A    between atoms: _527  and  _528
REMARK  211  A    between atoms: _527  and  _530
REMARK  212  A    between atoms: _530  and  _531
REMARK  213  A    between atoms: _534  and  _536
REMARK  214  A    between atoms: _536  and  _537
REMARK  215  A    between atoms: _540  and  _542
REMARK  216  A    between atoms: _542  and  _543
REMARK  217  A    between atoms: _542  and  _545
REMARK  218  A    between atoms: _545  and  _546
REMARK  219  A    between atoms: _549  and  _551
REMARK  220  A    between atoms: _551  and  _552
REMARK  221  A    between atoms: _551  and  _554
REMARK  222  A    between atoms: _554  and  _555
REMARK  223  A    between atoms: _557  and  _559
REMARK  224  A    between atoms: _559  and  _560
REMARK  225  A    between atoms: _562  and  _564
REMARK  226  A    between atoms: _564  and  _565
REMARK  227  A    between atoms: _564  and  _567
REMARK  228  A    between atoms: _567  and  _568
REMARK  229  A    between atoms: _571  and  _573
REMARK  230  A    between atoms: _573  and  _574
REMARK  231  A    between atoms: _573  and  _576
REMARK                            x       y       z     vdW  Elec       q    Type
REMARK                         _______ _______ _______ _____ _____    ______ ____
ROOT
ATOM      1  CA  ILE A   3      -5.429  -9.383  19.982  0.00  0.00    +0.149 C 
ENDROOT
BRANCH   1   3
ATOM      2  C   ILE A   2      -7.797  -8.862  20.290  0.00  0.00    +0.241 C 
ATOM      3  N   ILE A   3      -6.605  -9.136  20.807  0.00  0.00    -0.297 N 
ATOM      4  H   ILE A   3      -6.507  -9.176  21.842  0.00  0.00    +0.150 HD
ATOM      5  O   ILE A   2      -8.014  -8.830  19.079  0.00  0.00    -0.273 OA
BRANCH   2   6
ATOM      6  CA  ILE A   2      -8.896  -8.535  21.291  0.00  0.00    +0.148 C 
BRANCH   6   9
ATOM      7  C   GLN A   1      -8.604  -6.215  21.920  0.00  0.00    +0.238 C 
ATOM      8  O   GLN A   1      -8.060  -6.487  22.992  0.00  0.00    -0.274 OA
ATOM      9  N   ILE A   2      -9.190  -7.119  21.146  0.00  0.00    -0.297 N 
ATOM     10  H   ILE A   2      -9.871  -6.809  20.424  0.00  0.00    +0.150 HD
BRANCH   7  11
ATOM     11  CA  GLN A   1      -8.650  -4.792  21.399  0.00  0.00    +0.145 C 
BRANCH  11  12
ATOM     12  N   GLN A   1      -8.317  -3.820  22.427  0.00  0.00    -0.238 NA
ATOM     13  H   GLN A   1      -7.469  -3.973  23.009  0.00  0.00    +0.142 HD
ENDBRANCH  11  12
BRANCH  11  14
ATOM     14  CB  GLN A   1      -7.672  -4.702  20.221  0.00  0.00    +0.036 C 
BRANCH  14  15
ATOM     15  CG  GLN A   1      -7.619  -3.390  19.476  0.00  0.00    +0.087 C 
BRANCH  15  16
ATOM     16  CD  GLN A   1      -6.620  -3.442  18.332  0.00  0.00    +0.219 C 
ATOM     17  NE2 GLN A   1      -6.028  -2.301  18.012  0.00  0.00    -0.329 N 
ATOM     18 HE21 GLN A   1      -6.262  -1.430  18.531  0.00  0.00    +0.145 HD
ATOM     19 HE22 GLN A   1      -5.329  -2.276  17.242  0.00  0.00    +0.145 HD
ATOM     20  OE1 GLN A   1      -6.379  -4.502  17.749  0.00  0.00    -0.275 OA
ENDBRANCH  15  16
ENDBRANCH  14  15
ENDBRANCH  11  14
ENDBRANCH   7  11
ENDBRANCH   6   9
BRANCH   6  21
ATOM     21  CB  ILE A   2     -10.130  -9.421  21.057  0.00  0.00    +0.027 C 
ATOM     22  CG2 ILE A   2      -9.721 -10.880  20.903  0.00  0.00    +0.002 C 
BRANCH  21  23
ATOM     23  CG1 ILE A   2     -11.116  -9.262  22.215  0.00  0.00    +0.002 C 
ATOM     24  CD1 ILE A   2     -12.364 -10.087  22.062  0.00  0.00    +0.000 C 
ENDBRANCH  21  23
ENDBRANCH   6  21
ENDBRANCH   2   6
ENDBRANCH   1   3
BRANCH   1  25
ATOM     25  C   ILE A   3      -4.980 -10.823  20.165  0.00  0.00    +0.241 C 
ATOM     26  O   ILE A   3      -4.404 -11.164  21.198  0.00  0.00    -0.273 OA
ATOM     27  N   LEU A   4      -5.251 -11.678  19.183  0.00  0.00    -0.297 N 
ATOM     28  H   LEU A   4      -5.717 -11.349  18.313  0.00  0.00    +0.150 HD
BRANCH  27  29
ATOM     29  CA  LEU A   4      -4.888 -13.080  19.339  0.00  0.00    +0.149 C 
BRANCH  29  30
ATOM     30  C   LEU A   4      -4.389 -13.756  18.072  0.00  0.00    +0.241 C 
ATOM     31  N   SER A   5      -3.656 -14.843  18.287  0.00  0.00    -0.295 N 
ATOM     32  H   SER A   5      -3.393 -15.078  19.265  0.00  0.00    +0.150 HD
ATOM     33  O   LEU A   4      -4.654 -13.314  16.951  0.00  0.00    -0.273 OA
BRANCH  31  34
ATOM     34  CA  SER A   5      -3.205 -15.717  17.222  0.00  0.00    +0.178 C 
BRANCH  34  35
ATOM     35  C   SER A   5      -3.505 -17.159  17.602  0.00  0.00    +0.243 C 
ATOM     36  O   SER A   5      -3.429 -17.524  18.777  0.00  0.00    -0.273 OA
ATOM     37  N   VAL A   6      -3.861 -17.973  16.614  0.00  0.00    -0.298 N 
ATOM     38  H   VAL A   6      -4.013 -17.585  15.661  0.00  0.00    +0.150 HD
BRANCH  37  39
ATOM     39  CA  VAL A   6      -4.042 -19.400  16.843  0.00  0.00    +0.137 C 
BRANCH  39  40
ATOM     40  CB  VAL A   6      -5.529 -19.818  16.775  0.00  0.00    +0.026 C 
ATOM     41  CG2 VAL A   6      -6.334 -19.081  17.831  0.00  0.00    +0.002 C 
ATOM     42  CG1 VAL A   6      -6.103 -19.564  15.390  0.00  0.00    +0.002 C 
ENDBRANCH  39  40
BRANCH  39  43
ATOM     43  C   VAL A   6      -3.241 -20.199  15.825  0.00  0.00    +0.227 C 
ATOM     44  O   VAL A   6      -2.980 -19.731  14.717  0.00  0.00    -0.286 OA
ENDBRANCH  39  43
ENDBRANCH  37  39
ENDBRANCH  34  35
BRANCH  34  45
ATOM     45  CB  SER A   5      -1.710 -15.533  16.958  0.00  0.00    +0.166 C 
BRANCH  45  46
ATOM     46  OG  SER A   5      -1.430 -14.221  16.507  0.00  0.00    -0.380 OA
ATOM     47  H   SER A   5      -1.713 -13.569  17.196  0.00  0.00    +0.211 HD
ENDBRANCH  45  46
ENDBRANCH  34  45
ENDBRANCH  31  34
ENDBRANCH  29  30
BRANCH  29  48
ATOM     48  CB  LEU A   4      -6.073 -13.872  19.909  0.00  0.00    +0.029 C 
BRANCH  48  49
ATOM     49  CG  LEU A   4      -7.417 -13.959  19.181  0.00  0.00    +0.002 C 
ATOM     50  CD2 LEU A   4      -8.508 -14.272  20.189  0.00  0.00    +0.000 C 
ATOM     51  CD1 LEU A   4      -7.405 -15.016  18.087  0.00  0.00    +0.000 C 
ENDBRANCH  48  49
ENDBRANCH  29  48
ENDBRANCH  27  29
ENDBRANCH   1  25
BRANCH   1  52
ATOM     52  CB  ILE A   3      -4.271  -8.427  20.357  0.00  0.00    +0.027 C 
ATOM     53  CG2 ILE A   3      -3.023  -8.726  19.541  0.00  0.00    +0.002 C 
BRANCH  52  54
ATOM     54  CG1 ILE A   3      -4.691  -6.966  20.183  0.00  0.00    +0.002 C 
ATOM     55  CD1 ILE A   3      -3.664  -5.979  20.699  0.00  0.00    +0.000 C 
ENDBRANCH  52  54
ENDBRANCH   1  52
TORSDOF 24
REMARK  Name = ../refined-set-2016/4xu0/4xu0_pocket.pdb
REMARK  231 active torsions:
REMARK  status: ('A' for Active; 'I' for Inactive)
REMARK    1  A    between atoms: _1  and  _3
REMARK    2  A    between atoms: _3  and  _4
REMARK    3  A    between atoms: _3  and  _6
REMARK    4  A    between atoms: _6  and  _7
REMARK    5  A    between atoms: _10  and  _12
REMARK    6  A    between atoms: _12  and  _13
REMARK    7  A    between atoms: _15  and  _17
REMARK    8  A    between atoms: _17  and  _18
REMARK    9  A    between atoms: _17  and  _20
REMARK   10  A    between atoms: _20  and  _21
REMARK   11  A    between atoms: _23  and  _25
REMARK   12  A    between atoms: _25  and  _26
REMARK   13  A    between atoms: _25  and  _28
REMARK   14  A    between atoms: _28  and  _29
REMARK   15  A    between atoms: _32  and  _34
REMARK   16  A    between atoms: _34  and  _35
REMARK   17  A    between atoms: _34  and  _37
REMARK   18  A    between atoms: _37  and  _38
REMARK   19  A    between atoms: _43  and  _45
REMARK   20  A    between atoms: _45  and  _46
REMARK   21  A    between atoms: _49  and  _51
REMARK   22  A    between atoms: _51  and  _52
REMARK   23  A    between atoms: _51  and  _54
REMARK   24  A    between atoms: _54  and  _55
REMARK   25  A    between atoms: _58  and  _60
REMARK   26  A    between atoms: _60  and  _61
REMARK   27  A    between atoms: _60  and  _63
REMARK   28  A    between atoms: _63  and  _64
REMARK   29  A    between atoms: _67  and  _69
REMARK   30  A    between atoms: _69  and  _70
REMARK   31  A    between atoms: _69  and  _72
REMARK   32  A    between atoms: _72  and  _73
REMARK   33  A    between atoms: _76  and  _78
REMARK   34  A    between atoms: _78  and  _79
REMARK   35  A    between atoms: _82  and  _84
REMARK   36  A    between atoms: _84  and  _85
REMARK   37  A    between atoms: _84  and  _87
REMARK   38  A    between atoms: _87  and  _88
REMARK   39  A    between atoms: _88  and  _89
REMARK   40  A    between atoms: _94  and  _96
REMARK   41  A    between atoms: _96  and  _97
REMARK   42  A    between atoms: _96  and  _99
REMARK   43  A    between atoms: _99  and  _100
REMARK   44  A    between atoms: _103  and  _105
REMARK   45  A    between atoms: _105  and  _106
REMARK   46  A    between atoms: _109  and  _111
REMARK   47  A    between atoms: _111  and  _112
REMARK   48  A    between atoms: _114  and  _116
REMARK   49  A    between atoms: _116  and  _117
REMARK   50  A    between atoms: _116  and  _119
REMARK   51  A    between atoms: _119  and  _120
REMARK   52  A    between atoms: _120  and  _121
REMARK   53  A    between atoms: _121  and  _122
REMARK   54  A    between atoms: _131  and  _133
REMARK   55  A    between atoms: _133  and  _134
REMARK   56  A    between atoms: _136  and  _138
REMARK   57  A    between atoms: _138  and  _139
REMARK   58  A    between atoms: _138  and  _141
REMARK   59  A    between atoms: _141  and  _142
REMARK   60  A    between atoms: _142  and  _143
REMARK   61  A    between atoms: _143  and  _144
REMARK   62  A    between atoms: _153  and  _155
REMARK   63  A    between atoms: _155  and  _156
REMARK   64  A    between atoms: _155  and  _158
REMARK   65  A    between atoms: _158  and  _159
REMARK   66  A    between atoms: _164  and  _166
REMARK   67  A    between atoms: _166  and  _167
REMARK   68  A    between atoms: _169  and  _171
REMARK   69  A    between atoms: _171  and  _172
REMARK   70  A    between atoms: _171  and  _174
REMARK   71  A    between atoms: _174  and  _175
REMARK   72  A    between atoms: _175  and  _176
REMARK   73  A    between atoms: _176  and  _177
REMARK   74  A    between atoms: _186  and  _188
REMARK   75  A    between atoms: _188  and  _189
REMARK   76  A    between atoms: _191  and  _193
REMARK   77  A    between atoms: _193  and  _194
REMARK   78  A    between atoms: _193  and  _196
REMARK   79  A    between atoms: _196  and  _197
REMARK   80  A    between atoms: _207  and  _209
REMARK   81  A    between atoms: _209  and  _210
REMARK   82  A    between atoms: _213  and  _215
REMARK   83  A    between atoms: _215  and  _216
REMARK   84  A    between atoms: _219  and  _221
REMARK   85  A    between atoms: _221  and  _222
REMARK   86  A    between atoms: _221  and  _224
REMARK   87  A    between atoms: _224  and  _225
REMARK   88  A    between atoms: _228  and  _230
REMARK   89  A    between atoms: _230  and  _231
REMARK   90  A    between atoms: _230  and  _233
REMARK   91  A    between atoms: _233  and  _234
REMARK   92  A    between atoms: _234  and  _235
REMARK   93  A    between atoms: _240  and  _242
REMARK   94  A    between atoms: _242  and  _243
REMARK   95  A    between atoms: _242  and  _245
REMARK   96  A    between atoms: _245  and  _246
REMARK   97  A    between atoms: _249  and  _251
REMARK   98  A    between atoms: _251  and  _252
REMARK   99  A    between atoms: _251  and  _254
REMARK  100  A    between atoms: _254  and  _255
REMARK  101  A    between atoms: _258  and  _260
REMARK  102  A    between atoms: _260  and  _261
REMARK  103  A    between atoms: _260  and  _263
REMARK  104  A    between atoms: _263  and  _264
REMARK  105  A    between atoms: _267  and  _269
REMARK  106  A    between atoms: _269  and  _270
REMARK  107  A    between atoms: _269  and  _272
REMARK  108  A    between atoms: _272  and  _273
REMARK  109  A    between atoms: _275  and  _277
REMARK  110  A    between atoms: _277  and  _278
REMARK  111  A    between atoms: _277  and  _280
REMARK  112  A    between atoms: _283  and  _285
REMARK  113  A    between atoms: _285  and  _286
REMARK  114  A    between atoms: _285  and  _288
REMARK  115  A    between atoms: _288  and  _289
REMARK  116  A    between atoms: _289  and  _290
REMARK  117  A    between atoms: _290  and  _291
REMARK  118  A    between atoms: _291  and  _292
REMARK  119  A    between atoms: _297  and  _298
REMARK  120  A    between atoms: _303  and  _305
REMARK  121  A    between atoms: _305  and  _306
REMARK  122  A    between atoms: _305  and  _308
REMARK  123  A    between atoms: _308  and  _309
REMARK  124  A    between atoms: _314  and  _316
REMARK  125  A    between atoms: _316  and  _317
REMARK  126  A    between atoms: _316  and  _319
REMARK  127  A    between atoms: _319  and  _320
REMARK  128  A    between atoms: _323  and  _325
REMARK  129  A    between atoms: _325  and  _326
REMARK  130  A    between atoms: _325  and  _328
REMARK  131  A    between atoms: _331  and  _333
REMARK  132  A    between atoms: _333  and  _334
REMARK  133  A    between atoms: _336  and  _338
REMARK  134  A    between atoms: _338  and  _339
REMARK  135  A    between atoms: _338  and  _341
REMARK  136  A    between atoms: _341  and  _342
REMARK  137  A    between atoms: _342  and  _343
REMARK  138  A    between atoms: _343  and  _344
REMARK  139  A    between atoms: _344  and  _345
REMARK  140  A    between atoms: _349  and  _351
REMARK  141  A    between atoms: _351  and  _352
REMARK  142  A    between atoms: _351  and  _354
REMARK  143  A    between atoms: _354  and  _355
REMARK  144  A    between atoms: _358  and  _360
REMARK  145  A    between atoms: _360  and  _361
REMARK  146  A    between atoms: _364  and  _366
REMARK  147  A    between atoms: _366  and  _367
REMARK  148  A    between atoms: _369  and  _371
REMARK  149  A    between atoms: _371  and  _372
REMARK  150  A    between atoms: _371  and  _374
REMARK  151  A    between atoms: _374  and  _375
REMARK  152  A    between atoms: _378  and  _380
REMARK  153  A    between atoms: _380  and  _381
REMARK  154  A    between atoms: _380  and  _383
REMARK  155  A    between atoms: _383  and  _384
REMARK  156  A    between atoms: _387  and  _389
REMARK  157  A    between atoms: _389  and  _390
REMARK  158  A    between atoms: _393  and  _395
REMARK  159  A    between atoms: _395  and  _396
REMARK  160  A    between atoms: _395  and  _398
REMARK  161  A    between atoms: _398  and  _399
REMARK  162  A    between atoms: _399  and  _400
REMARK  163  A    between atoms: _403  and  _405
REMARK  164  A    between atoms: _405  and  _406
REMARK  165  A    between atoms: _405  and  _408
REMARK  166  A    between atoms: _411  and  _413
REMARK  167  A    between atoms: _413  and  _414
REMARK  168  A    between atoms: _413  and  _416
REMARK  169  A    between atoms: _416  and  _417
REMARK  170  A    between atoms: _420  and  _422
REMARK  171  A    between atoms: _422  and  _423
REMARK  172  A    between atoms: _425  and  _427
REMARK  173  A    between atoms: _427  and  _428
REMARK  174  A    between atoms: _427  and  _430
REMARK  175  A    between atoms: _433  and  _435
REMARK  176  A    between atoms: _435  and  _436
REMARK  177  A    between atoms: _438  and  _440
REMARK  178  A    between atoms: _440  and  _441
REMARK  179  A    between atoms: _440  and  _443
REMARK  180  A    between atoms: _443  and  _444
REMARK  181  A    between atoms: _447  and  _449
REMARK  182  A    between atoms: _449  and  _450
REMARK  183  A    between atoms: _449  and  _452
REMARK  184  A    between atoms: _452  and  _453
REMARK  185  A    between atoms: _458  and  _460
REMARK  186  A    between atoms: _460  and  _461
REMARK  187  A    between atoms: _460  and  _463
REMARK  188  A    between atoms: _466  and  _468
REMARK  189  A    between atoms: _468  and  _469
REMARK  190  A    between atoms: _468  and  _471
REMARK  191  A    between atoms: _471  and  _472
REMARK  192  A    between atoms: _472  and  _473
REMARK  193  A    between atoms: _478  and  _480
REMARK  194  A    between atoms: _480  and  _481
REMARK  195  A    between atoms: _485  and  _486
REMARK  196  A    between atoms: _491  and  _493
REMARK  197  A    between atoms: _493  and  _494
REMARK  198  A    between atoms: _493  and  _496
REMARK  199  A    between atoms: _496  and  _497
REMARK  200  A    between atoms: _497  and  _498
REMARK  201  A    between atoms: _501  and  _503
REMARK  202  A    between atoms: _503  and  _504
REMARK  203  A    between atoms: _503  and  _506
REMARK  204  A    between atoms: _509  and  _511
REMARK  205  A    between atoms: _511  and  _512
REMARK  206  A    between atoms: _511  and  _514
REMARK  207  A    between atoms: _514  and  _515
REMARK  208  A    between atoms: _519  and  _520
REMARK  209  A    between atoms: _525  and  _527
REMARK  210  A    between atoms: _527  and  _528
REMARK  211  A    between atoms: _527  and  _530
REMARK  212  A    between atoms: _530  and  _531
REMARK  213  A    between atoms: _534  and  _536
REMARK  214  A    between atoms: _536  and  _537
REMARK  215  A    between atoms: _540  and  _542
REMARK  216  A    between atoms: _542  and  _543
REMARK  217  A    between atoms: _542  and  _545
REMARK  218  A    between atoms: _545  and  _546
REMARK  219  A    between atoms: _549  and  _551
REMARK  220  A    between atoms: _551  and  _552
REMARK  221  A    between atoms: _551  and  _554
REMARK  222  A    between atoms: _554  and  _555
REMARK  223  A    between atoms: _557  and  _559
REMARK  224  A    between atoms: _559  and  _560
REMARK  225  A    between atoms: _562  and  _564
REMARK  226  A    between atoms: _564  and  _565
REMARK  227  A    between atoms: _564  and  _567
REMARK  228  A    between atoms: _567  and  _568
REMARK  229  A    between atoms: _571  and  _573
REMARK  230  A    between atoms: _573  and  _574
REMARK  231  A    between atoms: _573  and  _576
REMARK                            x       y       z     vdW  Elec       q    Type
REMARK                         _______ _______ _______ _____ _____    ______ ____
ROOT
ATOM      1  CG  LYS A   1     -13.308  -5.070   1.598  0.00  0.00    -0.000 C 
ENDROOT
BRANCH   1   2
ATOM      2  CB  LYS A   1     -14.004  -5.617   2.842  0.00  0.00    +0.025 C 
BRANCH   2   3
ATOM      3  CA  LYS A   1     -14.505  -7.053   2.671  0.00  0.00    +0.133 C 
BRANCH   3   4
ATOM      4  N   LYS A   1     -15.166  -7.534   3.876  0.00  0.00    -0.239 NA
ATOM      5  H   LYS A   1     -14.749  -7.321   4.805  0.00  0.00    +0.142 HD
ENDBRANCH   3   4
BRANCH   3   6
ATOM      6  C   LYS A   1     -13.348  -7.978   2.331  0.00  0.00    +0.224 C 
ATOM      7  O   LYS A   1     -12.512  -8.274   3.183  0.00  0.00    -0.287 OA
ENDBRANCH   3   6
ENDBRANCH   2   3
ENDBRANCH   1   2
BRANCH   1   8
ATOM      8  CD  LYS A   1     -13.125  -3.562   1.657  0.00  0.00    -0.024 C 
BRANCH   8   9
ATOM      9  CE  LYS A   1     -12.091  -3.171   2.691  0.00  0.00    -0.086 C 
BRANCH   9  10
ATOM     10  NZ  LYS A   1     -11.795  -1.718   2.622  0.00  0.00    +0.380 N 
ATOM     11  HZ1 LYS A   1     -11.083  -1.476   3.341  0.00  0.00    -0.089 HD
ATOM     12  HZ2 LYS A   1     -12.667  -1.179   2.800  0.00  0.00    -0.089 HD
ATOM     13  HZ3 LYS A   1     -11.428  -1.485   1.677  0.00  0.00    -0.089 HD
ENDBRANCH   9  10
ENDBRANCH   8   9
ENDBRANCH   1   8
TORSDOF 7
REMARK  Name = ../refined-set-2016/4xu0/4xu0_pocket.pdb
REMARK  231 active torsions:
REMARK  status: ('A' for Active; 'I' for Inactive)
REMARK    1  A    between atoms: _1  and  _3
REMARK    2  A    between atoms: _3  and  _4
REMARK    3  A    between atoms: _3  and  _6
REMARK    4  A    between atoms: _6  and  _7
REMARK    5  A    between atoms: _10  and  _12
REMARK    6  A    between atoms: _12  and  _13
REMARK    7  A    between atoms: _15  and  _17
REMARK    8  A    between atoms: _17  and  _18
REMARK    9  A    between atoms: _17  and  _20
REMARK   10  A    between atoms: _20  and  _21
REMARK   11  A    between atoms: _23  and  _25
REMARK   12  A    between atoms: _25  and  _26
REMARK   13  A    between atoms: _25  and  _28
REMARK   14  A    between atoms: _28  and  _29
REMARK   15  A    between atoms: _32  and  _34
REMARK   16  A    between atoms: _34  and  _35
REMARK   17  A    between atoms: _34  and  _37
REMARK   18  A    between atoms: _37  and  _38
REMARK   19  A    between atoms: _43  and  _45
REMARK   20  A    between atoms: _45  and  _46
REMARK   21  A    between atoms: _49  and  _51
REMARK   22  A    between atoms: _51  and  _52
REMARK   23  A    between atoms: _51  and  _54
REMARK   24  A    between atoms: _54  and  _55
REMARK   25  A    between atoms: _58  and  _60
REMARK   26  A    between atoms: _60  and  _61
REMARK   27  A    between atoms: _60  and  _63
REMARK   28  A    between atoms: _63  and  _64
REMARK   29  A    between atoms: _67  and  _69
REMARK   30  A    between atoms: _69  and  _70
REMARK   31  A    between atoms: _69  and  _72
REMARK   32  A    between atoms: _72  and  _73
REMARK   33  A    between atoms: _76  and  _78
REMARK   34  A    between atoms: _78  and  _79
REMARK   35  A    between atoms: _82  and  _84
REMARK   36  A    between atoms: _84  and  _85
REMARK   37  A    between atoms: _84  and  _87
REMARK   38  A    between atoms: _87  and  _88
REMARK   39  A    between atoms: _88  and  _89
REMARK   40  A    between atoms: _94  and  _96
REMARK   41  A    between atoms: _96  and  _97
REMARK   42  A    between atoms: _96  and  _99
REMARK   43  A    between atoms: _99  and  _100
REMARK   44  A    between atoms: _103  and  _105
REMARK   45  A    between atoms: _105  and  _106
REMARK   46  A    between atoms: _109  and  _111
REMARK   47  A    between atoms: _111  and  _112
REMARK   48  A    between atoms: _114  and  _116
REMARK   49  A    between atoms: _116  and  _117
REMARK   50  A    between atoms: _116  and  _119
REMARK   51  A    between atoms: _119  and  _120
REMARK   52  A    between atoms: _120  and  _121
REMARK   53  A    between atoms: _121  and  _122
REMARK   54  A    between atoms: _131  and  _133
REMARK   55  A    between atoms: _133  and  _134
REMARK   56  A    between atoms: _136  and  _138
REMARK   57  A    between atoms: _138  and  _139
REMARK   58  A    between atoms: _138  and  _141
REMARK   59  A    between atoms: _141  and  _142
REMARK   60  A    between atoms: _142  and  _143
REMARK   61  A    between atoms: _143  and  _144
REMARK   62  A    between atoms: _153  and  _155
REMARK   63  A    between atoms: _155  and  _156
REMARK   64  A    between atoms: _155  and  _158
REMARK   65  A    between atoms: _158  and  _159
REMARK   66  A    between atoms: _164  and  _166
REMARK   67  A    between atoms: _166  and  _167
REMARK   68  A    between atoms: _169  and  _171
REMARK   69  A    between atoms: _171  and  _172
REMARK   70  A    between atoms: _171  and  _174
REMARK   71  A    between atoms: _174  and  _175
REMARK   72  A    between atoms: _175  and  _176
REMARK   73  A    between atoms: _176  and  _177
REMARK   74  A    between atoms: _186  and  _188
REMARK   75  A    between atoms: _188  and  _189
REMARK   76  A    between atoms: _191  and  _193
REMARK   77  A    between atoms: _193  and  _194
REMARK   78  A    between atoms: _193  and  _196
REMARK   79  A    between atoms: _196  and  _197
REMARK   80  A    between atoms: _207  and  _209
REMARK   81  A    between atoms: _209  and  _210
REMARK   82  A    between atoms: _213  and  _215
REMARK   83  A    between atoms: _215  and  _216
REMARK   84  A    between atoms: _219  and  _221
REMARK   85  A    between atoms: _221  and  _222
REMARK   86  A    between atoms: _221  and  _224
REMARK   87  A    between atoms: _224  and  _225
REMARK   88  A    between atoms: _228  and  _230
REMARK   89  A    between atoms: _230  and  _231
REMARK   90  A    between atoms: _230  and  _233
REMARK   91  A    between atoms: _233  and  _234
REMARK   92  A    between atoms: _234  and  _235
REMARK   93  A    between atoms: _240  and  _242
REMARK   94  A    between atoms: _242  and  _243
REMARK   95  A    between atoms: _242  and  _245
REMARK   96  A    between atoms: _245  and  _246
REMARK   97  A    between atoms: _249  and  _251
REMARK   98  A    between atoms: _251  and  _252
REMARK   99  A    between atoms: _251  and  _254
REMARK  100  A    between atoms: _254  and  _255
REMARK  101  A    between atoms: _258  and  _260
REMARK  102  A    between atoms: _260  and  _261
REMARK  103  A    between atoms: _260  and  _263
REMARK  104  A    between atoms: _263  and  _264
REMARK  105  A    between atoms: _267  and  _269
REMARK  106  A    between atoms: _269  and  _270
REMARK  107  A    between atoms: _269  and  _272
REMARK  108  A    between atoms: _272  and  _273
REMARK  109  A    between atoms: _275  and  _277
REMARK  110  A    between atoms: _277  and  _278
REMARK  111  A    between atoms: _277  and  _280
REMARK  112  A    between atoms: _283  and  _285
REMARK  113  A    between atoms: _285  and  _286
REMARK  114  A    between atoms: _285  and  _288
REMARK  115  A    between atoms: _288  and  _289
REMARK  116  A    between atoms: _289  and  _290
REMARK  117  A    between atoms: _290  and  _291
REMARK  118  A    between atoms: _291  and  _292
REMARK  119  A    between atoms: _297  and  _298
REMARK  120  A    between atoms: _303  and  _305
REMARK  121  A    between atoms: _305  and  _306
REMARK  122  A    between atoms: _305  and  _308
REMARK  123  A    between atoms: _308  and  _309
REMARK  124  A    between atoms: _314  and  _316
REMARK  125  A    between atoms: _316  and  _317
REMARK  126  A    between atoms: _316  and  _319
REMARK  127  A    between atoms: _319  and  _320
REMARK  128  A    between atoms: _323  and  _325
REMARK  129  A    between atoms: _325  and  _326
REMARK  130  A    between atoms: _325  and  _328
REMARK  131  A    between atoms: _331  and  _333
REMARK  132  A    between atoms: _333  and  _334
REMARK  133  A    between atoms: _336  and  _338
REMARK  134  A    between atoms: _338  and  _339
REMARK  135  A    between atoms: _338  and  _341
REMARK  136  A    between atoms: _341  and  _342
REMARK  137  A    between atoms: _342  and  _343
REMARK  138  A    between atoms: _343  and  _344
REMARK  139  A    between atoms: _344  and  _345
REMARK  140  A    between atoms: _349  and  _351
REMARK  141  A    between atoms: _351  and  _352
REMARK  142  A    between atoms: _351  and  _354
REMARK  143  A    between atoms: _354  and  _355
REMARK  144  A    between atoms: _358  and  _360
REMARK  145  A    between atoms: _360  and  _361
REMARK  146  A    between atoms: _364  and  _366
REMARK  147  A    between atoms: _366  and  _367
REMARK  148  A    between atoms: _369  and  _371
REMARK  149  A    between atoms: _371  and  _372
REMARK  150  A    between atoms: _371  and  _374
REMARK  151  A    between atoms: _374  and  _375
REMARK  152  A    between atoms: _378  and  _380
REMARK  153  A    between atoms: _380  and  _381
REMARK  154  A    between atoms: _380  and  _383
REMARK  155  A    between atoms: _383  and  _384
REMARK  156  A    between atoms: _387  and  _389
REMARK  157  A    between atoms: _389  and  _390
REMARK  158  A    between atoms: _393  and  _395
REMARK  159  A    between atoms: _395  and  _396
REMARK  160  A    between atoms: _395  and  _398
REMARK  161  A    between atoms: _398  and  _399
REMARK  162  A    between atoms: _399  and  _400
REMARK  163  A    between atoms: _403  and  _405
REMARK  164  A    between atoms: _405  and  _406
REMARK  165  A    between atoms: _405  and  _408
REMARK  166  A    between atoms: _411  and  _413
REMARK  167  A    between atoms: _413  and  _414
REMARK  168  A    between atoms: _413  and  _416
REMARK  169  A    between atoms: _416  and  _417
REMARK  170  A    between atoms: _420  and  _422
REMARK  171  A    between atoms: _422  and  _423
REMARK  172  A    between atoms: _425  and  _427
REMARK  173  A    between atoms: _427  and  _428
REMARK  174  A    between atoms: _427  and  _430
REMARK  175  A    between atoms: _433  and  _435
REMARK  176  A    between atoms: _435  and  _436
REMARK  177  A    between atoms: _438  and  _440
REMARK  178  A    between atoms: _440  and  _441
REMARK  179  A    between atoms: _440  and  _443
REMARK  180  A    between atoms: _443  and  _444
REMARK  181  A    between atoms: _447  and  _449
REMARK  182  A    between atoms: _449  and  _450
REMARK  183  A    between atoms: _449  and  _452
REMARK  184  A    between atoms: _452  and  _453
REMARK  185  A    between atoms: _458  and  _460
REMARK  186  A    between atoms: _460  and  _461
REMARK  187  A    between atoms: _460  and  _463
REMARK  188  A    between atoms: _466  and  _468
REMARK  189  A    between atoms: _468  and  _469
REMARK  190  A    between atoms: _468  and  _471
REMARK  191  A    between atoms: _471  and  _472
REMARK  192  A    between atoms: _472  and  _473
REMARK  193  A    between atoms: _478  and  _480
REMARK  194  A    between atoms: _480  and  _481
REMARK  195  A    between atoms: _485  and  _486
REMARK  196  A    between atoms: _491  and  _493
REMARK  197  A    between atoms: _493  and  _494
REMARK  198  A    between atoms: _493  and  _496
REMARK  199  A    between atoms: _496  and  _497
REMARK  200  A    between atoms: _497  and  _498
REMARK  201  A    between atoms: _501  and  _503
REMARK  202  A    between atoms: _503  and  _504
REMARK  203  A    between atoms: _503  and  _506
REMARK  204  A    between atoms: _509  and  _511
REMARK  205  A    between atoms: _511  and  _512
REMARK  206  A    between atoms: _511  and  _514
REMARK  207  A    between atoms: _514  and  _515
REMARK  208  A    between atoms: _519  and  _520
REMARK  209  A    between atoms: _525  and  _527
REMARK  210  A    between atoms: _527  and  _528
REMARK  211  A    between atoms: _527  and  _530
REMARK  212  A    between atoms: _530  and  _531
REMARK  213  A    between atoms: _534  and  _536
REMARK  214  A    between atoms: _536  and  _537
REMARK  215  A    between atoms: _540  and  _542
REMARK  216  A    between atoms: _542  and  _543
REMARK  217  A    between atoms: _542  and  _545
REMARK  218  A    between atoms: _545  and  _546
REMARK  219  A    between atoms: _549  and  _551
REMARK  220  A    between atoms: _551  and  _552
REMARK  221  A    between atoms: _551  and  _554
REMARK  222  A    between atoms: _554  and  _555
REMARK  223  A    between atoms: _557  and  _559
REMARK  224  A    between atoms: _559  and  _560
REMARK  225  A    between atoms: _562  and  _564
REMARK  226  A    between atoms: _564  and  _565
REMARK  227  A    between atoms: _564  and  _567
REMARK  228  A    between atoms: _567  and  _568
REMARK  229  A    between atoms: _571  and  _573
REMARK  230  A    between atoms: _573  and  _574
REMARK  231  A    between atoms: _573  and  _576
REMARK                            x       y       z     vdW  Elec       q    Type
REMARK                         _______ _______ _______ _____ _____    ______ ____
ROOT
ATOM      1  C   ASN A   2     -10.079  -9.004   6.203  0.00  0.00    +0.241 C 
ATOM      2  O   ASN A   2      -9.262  -8.638   7.051  0.00  0.00    -0.273 OA
ATOM      3  N   ASP A   3     -11.157  -8.303   5.877  0.00  0.00    -0.297 N 
ATOM      4  H   ASP A   3     -11.736  -8.611   5.070  0.00  0.00    +0.150 HD
ENDROOT
BRANCH   1   5
ATOM      5  CA  ASN A   2      -9.908 -10.318   5.459  0.00  0.00    +0.158 C 
BRANCH   5   7
ATOM      6  C   PRO A   1     -10.382 -10.900   3.154  0.00  0.00    +0.239 C 
ATOM      7  N   ASN A   2      -9.690 -10.176   4.027  0.00  0.00    -0.297 N 
ATOM      8  H   ASN A   2      -8.982  -9.497   3.682  0.00  0.00    +0.150 HD
ATOM      9  O   PRO A   1     -11.316 -11.633   3.479  0.00  0.00    -0.274 OA
BRANCH   6  11
ATOM     10  N   PRO A   1      -9.878  -9.411   1.205  0.00  0.00    -0.210 NA
ATOM     11  CA  PRO A   1      -9.985 -10.793   1.684  0.00  0.00    +0.149 C 
ATOM     12  CB  PRO A   1      -8.575 -11.345   1.457  0.00  0.00    +0.028 C 
ATOM     13  CG  PRO A   1      -7.685 -10.157   1.583  0.00  0.00    +0.021 C 
ATOM     14  CD  PRO A   1      -8.479  -8.949   1.152  0.00  0.00    +0.089 C 
ENDBRANCH   6  11
ENDBRANCH   5   7
BRANCH   5  15
ATOM     15  CB  ASN A   2      -8.762 -11.104   6.083  0.00  0.00    +0.114 C 
BRANCH  15  16
ATOM     16  CG  ASN A   2      -9.133 -12.540   6.351  0.00  0.00    +0.222 C 
ATOM     17  OD1 ASN A   2      -8.267 -13.392   6.524  0.00  0.00    -0.275 OA
ATOM     18  ND2 ASN A   2     -10.431 -12.818   6.386  0.00  0.00    -0.329 N 
ATOM     19 HD21 ASN A   2     -10.750 -13.792   6.566  0.00  0.00    +0.145 HD
ATOM     20 HD22 ASN A   2     -11.129 -12.062   6.233  0.00  0.00    +0.145 HD
ENDBRANCH  15  16
ENDBRANCH   5  15
ENDBRANCH   1   5
BRANCH   3  21
ATOM     21  CA  ASP A   3     -11.550  -7.118   6.617  0.00  0.00    +0.160 C 
BRANCH  21  22
ATOM     22  C   ASP A   3     -12.969  -7.287   7.135  0.00  0.00    +0.241 C 
ATOM     23  N   VAL A   4     -13.141  -7.153   8.443  0.00  0.00    -0.298 N 
ATOM     24  H   VAL A   4     -12.313  -7.103   9.070  0.00  0.00    +0.150 HD
ATOM     25  O   ASP A   3     -13.890  -7.552   6.366  0.00  0.00    -0.273 OA
BRANCH  23  26
ATOM     26  CA  VAL A   4     -14.477  -7.075   9.005  0.00  0.00    +0.137 C 
BRANCH  26  27
ATOM     27  CB  VAL A   4     -14.556  -7.697  10.405  0.00  0.00    +0.026 C 
ATOM     28  CG2 VAL A   4     -15.974  -7.589  10.952  0.00  0.00    +0.002 C 
ATOM     29  CG1 VAL A   4     -14.113  -9.153  10.358  0.00  0.00    +0.002 C 
ENDBRANCH  26  27
BRANCH  26  30
ATOM     30  C   VAL A   4     -14.867  -5.604   9.046  0.00  0.00    +0.227 C 
ATOM     31  O   VAL A   4     -14.195  -4.794   9.686  0.00  0.00    -0.286 OA
ENDBRANCH  26  30
ENDBRANCH  23  26
ENDBRANCH  21  22
BRANCH  21  32
ATOM     32  CB  ASP A   3     -11.457  -5.866   5.741  0.00  0.00    +0.143 C 
BRANCH  32  33
ATOM     33  CG  ASP A   3     -10.040  -5.339   5.617  0.00  0.00    +0.367 C 
ATOM     34  OD2 ASP A   3      -9.083  -6.094   5.897  0.00  0.00    -0.246 OA
ATOM     35  OD1 ASP A   3      -9.884  -4.162   5.232  0.00  0.00    -0.246 OA
ENDBRANCH  32  33
ENDBRANCH  21  32
ENDBRANCH   3  21
TORSDOF 12
REMARK  Name = ../refined-set-2016/4xu0/4xu0_pocket.pdb
REMARK  231 active torsions:
REMARK  status: ('A' for Active; 'I' for Inactive)
REMARK    1  A    between atoms: _1  and  _3
REMARK    2  A    between atoms: _3  and  _4
REMARK    3  A    between atoms: _3  and  _6
REMARK    4  A    between atoms: _6  and  _7
REMARK    5  A    between atoms: _10  and  _12
REMARK    6  A    between atoms: _12  and  _13
REMARK    7  A    between atoms: _15  and  _17
REMARK    8  A    between atoms: _17  and  _18
REMARK    9  A    between atoms: _17  and  _20
REMARK   10  A    between atoms: _20  and  _21
REMARK   11  A    between atoms: _23  and  _25
REMARK   12  A    between atoms: _25  and  _26
REMARK   13  A    between atoms: _25  and  _28
REMARK   14  A    between atoms: _28  and  _29
REMARK   15  A    between atoms: _32  and  _34
REMARK   16  A    between atoms: _34  and  _35
REMARK   17  A    between atoms: _34  and  _37
REMARK   18  A    between atoms: _37  and  _38
REMARK   19  A    between atoms: _43  and  _45
REMARK   20  A    between atoms: _45  and  _46
REMARK   21  A    between atoms: _49  and  _51
REMARK   22  A    between atoms: _51  and  _52
REMARK   23  A    between atoms: _51  and  _54
REMARK   24  A    between atoms: _54  and  _55
REMARK   25  A    between atoms: _58  and  _60
REMARK   26  A    between atoms: _60  and  _61
REMARK   27  A    between atoms: _60  and  _63
REMARK   28  A    between atoms: _63  and  _64
REMARK   29  A    between atoms: _67  and  _69
REMARK   30  A    between atoms: _69  and  _70
REMARK   31  A    between atoms: _69  and  _72
REMARK   32  A    between atoms: _72  and  _73
REMARK   33  A    between atoms: _76  and  _78
REMARK   34  A    between atoms: _78  and  _79
REMARK   35  A    between atoms: _82  and  _84
REMARK   36  A    between atoms: _84  and  _85
REMARK   37  A    between atoms: _84  and  _87
REMARK   38  A    between atoms: _87  and  _88
REMARK   39  A    between atoms: _88  and  _89
REMARK   40  A    between atoms: _94  and  _96
REMARK   41  A    between atoms: _96  and  _97
REMARK   42  A    between atoms: _96  and  _99
REMARK   43  A    between atoms: _99  and  _100
REMARK   44  A    between atoms: _103  and  _105
REMARK   45  A    between atoms: _105  and  _106
REMARK   46  A    between atoms: _109  and  _111
REMARK   47  A    between atoms: _111  and  _112
REMARK   48  A    between atoms: _114  and  _116
REMARK   49  A    between atoms: _116  and  _117
REMARK   50  A    between atoms: _116  and  _119
REMARK   51  A    between atoms: _119  and  _120
REMARK   52  A    between atoms: _120  and  _121
REMARK   53  A    between atoms: _121  and  _122
REMARK   54  A    between atoms: _131  and  _133
REMARK   55  A    between atoms: _133  and  _134
REMARK   56  A    between atoms: _136  and  _138
REMARK   57  A    between atoms: _138  and  _139
REMARK   58  A    between atoms: _138  and  _141
REMARK   59  A    between atoms: _141  and  _142
REMARK   60  A    between atoms: _142  and  _143
REMARK   61  A    between atoms: _143  and  _144
REMARK   62  A    between atoms: _153  and  _155
REMARK   63  A    between atoms: _155  and  _156
REMARK   64  A    between atoms: _155  and  _158
REMARK   65  A    between atoms: _158  and  _159
REMARK   66  A    between atoms: _164  and  _166
REMARK   67  A    between atoms: _166  and  _167
REMARK   68  A    between atoms: _169  and  _171
REMARK   69  A    between atoms: _171  and  _172
REMARK   70  A    between atoms: _171  and  _174
REMARK   71  A    between atoms: _174  and  _175
REMARK   72  A    between atoms: _175  and  _176
REMARK   73  A    between atoms: _176  and  _177
REMARK   74  A    between atoms: _186  and  _188
REMARK   75  A    between atoms: _188  and  _189
REMARK   76  A    between atoms: _191  and  _193
REMARK   77  A    between atoms: _193  and  _194
REMARK   78  A    between atoms: _193  and  _196
REMARK   79  A    between atoms: _196  and  _197
REMARK   80  A    between atoms: _207  and  _209
REMARK   81  A    between atoms: _209  and  _210
REMARK   82  A    between atoms: _213  and  _215
REMARK   83  A    between atoms: _215  and  _216
REMARK   84  A    between atoms: _219  and  _221
REMARK   85  A    between atoms: _221  and  _222
REMARK   86  A    between atoms: _221  and  _224
REMARK   87  A    between atoms: _224  and  _225
REMARK   88  A    between atoms: _228  and  _230
REMARK   89  A    between atoms: _230  and  _231
REMARK   90  A    between atoms: _230  and  _233
REMARK   91  A    between atoms: _233  and  _234
REMARK   92  A    between atoms: _234  and  _235
REMARK   93  A    between atoms: _240  and  _242
REMARK   94  A    between atoms: _242  and  _243
REMARK   95  A    between atoms: _242  and  _245
REMARK   96  A    between atoms: _245  and  _246
REMARK   97  A    between atoms: _249  and  _251
REMARK   98  A    between atoms: _251  and  _252
REMARK   99  A    between atoms: _251  and  _254
REMARK  100  A    between atoms: _254  and  _255
REMARK  101  A    between atoms: _258  and  _260
REMARK  102  A    between atoms: _260  and  _261
REMARK  103  A    between atoms: _260  and  _263
REMARK  104  A    between atoms: _263  and  _264
REMARK  105  A    between atoms: _267  and  _269
REMARK  106  A    between atoms: _269  and  _270
REMARK  107  A    between atoms: _269  and  _272
REMARK  108  A    between atoms: _272  and  _273
REMARK  109  A    between atoms: _275  and  _277
REMARK  110  A    between atoms: _277  and  _278
REMARK  111  A    between atoms: _277  and  _280
REMARK  112  A    between atoms: _283  and  _285
REMARK  113  A    between atoms: _285  and  _286
REMARK  114  A    between atoms: _285  and  _288
REMARK  115  A    between atoms: _288  and  _289
REMARK  116  A    between atoms: _289  and  _290
REMARK  117  A    between atoms: _290  and  _291
REMARK  118  A    between atoms: _291  and  _292
REMARK  119  A    between atoms: _297  and  _298
REMARK  120  A    between atoms: _303  and  _305
REMARK  121  A    between atoms: _305  and  _306
REMARK  122  A    between atoms: _305  and  _308
REMARK  123  A    between atoms: _308  and  _309
REMARK  124  A    between atoms: _314  and  _316
REMARK  125  A    between atoms: _316  and  _317
REMARK  126  A    between atoms: _316  and  _319
REMARK  127  A    between atoms: _319  and  _320
REMARK  128  A    between atoms: _323  and  _325
REMARK  129  A    between atoms: _325  and  _326
REMARK  130  A    between atoms: _325  and  _328
REMARK  131  A    between atoms: _331  and  _333
REMARK  132  A    between atoms: _333  and  _334
REMARK  133  A    between atoms: _336  and  _338
REMARK  134  A    between atoms: _338  and  _339
REMARK  135  A    between atoms: _338  and  _341
REMARK  136  A    between atoms: _341  and  _342
REMARK  137  A    between atoms: _342  and  _343
REMARK  138  A    between atoms: _343  and  _344
REMARK  139  A    between atoms: _344  and  _345
REMARK  140  A    between atoms: _349  and  _351
REMARK  141  A    between atoms: _351  and  _352
REMARK  142  A    between atoms: _351  and  _354
REMARK  143  A    between atoms: _354  and  _355
REMARK  144  A    between atoms: _358  and  _360
REMARK  145  A    between atoms: _360  and  _361
REMARK  146  A    between atoms: _364  and  _366
REMARK  147  A    between atoms: _366  and  _367
REMARK  148  A    between atoms: _369  and  _371
REMARK  149  A    between atoms: _371  and  _372
REMARK  150  A    between atoms: _371  and  _374
REMARK  151  A    between atoms: _374  and  _375
REMARK  152  A    between atoms: _378  and  _380
REMARK  153  A    between atoms: _380  and  _381
REMARK  154  A    between atoms: _380  and  _383
REMARK  155  A    between atoms: _383  and  _384
REMARK  156  A    between atoms: _387  and  _389
REMARK  157  A    between atoms: _389  and  _390
REMARK  158  A    between atoms: _393  and  _395
REMARK  159  A    between atoms: _395  and  _396
REMARK  160  A    between atoms: _395  and  _398
REMARK  161  A    between atoms: _398  and  _399
REMARK  162  A    between atoms: _399  and  _400
REMARK  163  A    between atoms: _403  and  _405
REMARK  164  A    between atoms: _405  and  _406
REMARK  165  A    between atoms: _405  and  _408
REMARK  166  A    between atoms: _411  and  _413
REMARK  167  A    between atoms: _413  and  _414
REMARK  168  A    between atoms: _413  and  _416
REMARK  169  A    between atoms: _416  and  _417
REMARK  170  A    between atoms: _420  and  _422
REMARK  171  A    between atoms: _422  and  _423
REMARK  172  A    between atoms: _425  and  _427
REMARK  173  A    between atoms: _427  and  _428
REMARK  174  A    between atoms: _427  and  _430
REMARK  175  A    between atoms: _433  and  _435
REMARK  176  A    between atoms: _435  and  _436
REMARK  177  A    between atoms: _438  and  _440
REMARK  178  A    between atoms: _440  and  _441
REMARK  179  A    between atoms: _440  and  _443
REMARK  180  A    between atoms: _443  and  _444
REMARK  181  A    between atoms: _447  and  _449
REMARK  182  A    between atoms: _449  and  _450
REMARK  183  A    between atoms: _449  and  _452
REMARK  184  A    between atoms: _452  and  _453
REMARK  185  A    between atoms: _458  and  _460
REMARK  186  A    between atoms: _460  and  _461
REMARK  187  A    between atoms: _460  and  _463
REMARK  188  A    between atoms: _466  and  _468
REMARK  189  A    between atoms: _468  and  _469
REMARK  190  A    between atoms: _468  and  _471
REMARK  191  A    between atoms: _471  and  _472
REMARK  192  A    between atoms: _472  and  _473
REMARK  193  A    between atoms: _478  and  _480
REMARK  194  A    between atoms: _480  and  _481
REMARK  195  A    between atoms: _485  and  _486
REMARK  196  A    between atoms: _491  and  _493
REMARK  197  A    between atoms: _493  and  _494
REMARK  198  A    between atoms: _493  and  _496
REMARK  199  A    between atoms: _496  and  _497
REMARK  200  A    between atoms: _497  and  _498
REMARK  201  A    between atoms: _501  and  _503
REMARK  202  A    between atoms: _503  and  _504
REMARK  203  A    between atoms: _503  and  _506
REMARK  204  A    between atoms: _509  and  _511
REMARK  205  A    between atoms: _511  and  _512
REMARK  206  A    between atoms: _511  and  _514
REMARK  207  A    between atoms: _514  and  _515
REMARK  208  A    between atoms: _519  and  _520
REMARK  209  A    between atoms: _525  and  _527
REMARK  210  A    between atoms: _527  and  _528
REMARK  211  A    between atoms: _527  and  _530
REMARK  212  A    between atoms: _530  and  _531
REMARK  213  A    between atoms: _534  and  _536
REMARK  214  A    between atoms: _536  and  _537
REMARK  215  A    between atoms: _540  and  _542
REMARK  216  A    between atoms: _542  and  _543
REMARK  217  A    between atoms: _542  and  _545
REMARK  218  A    between atoms: _545  and  _546
REMARK  219  A    between atoms: _549  and  _551
REMARK  220  A    between atoms: _551  and  _552
REMARK  221  A    between atoms: _551  and  _554
REMARK  222  A    between atoms: _554  and  _555
REMARK  223  A    between atoms: _557  and  _559
REMARK  224  A    between atoms: _559  and  _560
REMARK  225  A    between atoms: _562  and  _564
REMARK  226  A    between atoms: _564  and  _565
REMARK  227  A    between atoms: _564  and  _567
REMARK  228  A    between atoms: _567  and  _568
REMARK  229  A    between atoms: _571  and  _573
REMARK  230  A    between atoms: _573  and  _574
REMARK  231  A    between atoms: _573  and  _576
REMARK                            x       y       z     vdW  Elec       q    Type
REMARK                         _______ _______ _______ _____ _____    ______ ____
ROOT
ATOM      1  CA  GLY A   5      -8.125  -7.215  10.535  0.00  0.00    +0.176 C 
ENDROOT
BRANCH   1   3
ATOM      2  C   ALA A   4     -10.275  -6.432  11.348  0.00  0.00    +0.241 C 
ATOM      3  N   GLY A   5      -9.025  -6.809  11.595  0.00  0.00    -0.295 N 
ATOM      4  H   GLY A   5      -8.683  -6.813  12.577  0.00  0.00    +0.150 HD
ATOM      5  O   ALA A   4     -10.734  -6.326  10.211  0.00  0.00    -0.273 OA
BRANCH   2   6
ATOM      6  CA  ALA A   4     -11.130  -6.131  12.571  0.00  0.00    +0.149 C 
ATOM      7  CB  ALA A   4     -11.799  -7.412  13.071  0.00  0.00    +0.031 C 
BRANCH   6  10
ATOM      8  C   LEU A   3     -12.597  -4.311  13.258  0.00  0.00    +0.241 C 
ATOM      9  O   LEU A   3     -12.203  -4.375  14.424  0.00  0.00    -0.273 OA
ATOM     10  N   ALA A   4     -12.131  -5.104  12.297  0.00  0.00    -0.297 N 
ATOM     11  H   ALA A   4     -12.488  -4.990  11.327  0.00  0.00    +0.150 HD
BRANCH   8  12
ATOM     12  CA  LEU A   3     -13.664  -3.294  12.851  0.00  0.00    +0.149 C 
BRANCH  12  15
ATOM     13  C   LYS A   2     -12.647  -1.809  11.191  0.00  0.00    +0.241 C 
ATOM     14  O   LYS A   2     -11.959  -1.221  12.027  0.00  0.00    -0.273 OA
ATOM     15  N   LEU A   3     -13.467  -2.813  11.490  0.00  0.00    -0.297 N 
ATOM     16  H   LEU A   3     -13.990  -3.275  10.719  0.00  0.00    +0.150 HD
BRANCH  13  17
ATOM     17  CA  LYS A   2     -12.603  -1.412   9.722  0.00  0.00    +0.149 C 
BRANCH  17  19
ATOM     18  C   GLY A   1     -14.599  -0.089   9.373  0.00  0.00    +0.240 C 
ATOM     19  N   LYS A   2     -13.280  -0.140   9.514  0.00  0.00    -0.297 N 
ATOM     20  H   LYS A   2     -12.724   0.738   9.475  0.00  0.00    +0.150 HD
ATOM     21  O   GLY A   1     -15.312  -1.090   9.416  0.00  0.00    -0.274 OA
BRANCH  18  22
ATOM     22  CA  GLY A   1     -15.205   1.284   9.158  0.00  0.00    +0.169 C 
BRANCH  22  23
ATOM     23  N   GLY A   1     -16.452   1.241   8.416  0.00  0.00    -0.236 NA
ATOM     24  H   GLY A   1     -17.344   1.099   8.931  0.00  0.00    +0.142 HD
ENDBRANCH  22  23
ENDBRANCH  18  22
ENDBRANCH  17  19
BRANCH  17  25
ATOM     25  CB  LYS A   2     -11.158  -1.344   9.229  0.00  0.00    +0.029 C 
BRANCH  25  26
ATOM     26  CG  LYS A   2     -10.413  -2.665   9.352  0.00  0.00    +0.000 C 
BRANCH  26  27
ATOM     27  CD  LYS A   2      -9.185  -2.691   8.466  0.00  0.00    -0.024 C 
BRANCH  27  28
ATOM     28  CE  LYS A   2      -8.491  -4.034   8.541  0.00  0.00    -0.086 C 
BRANCH  28  29
ATOM     29  NZ  LYS A   2      -7.358  -4.099   7.588  0.00  0.00    +0.380 N 
ATOM     30  HZ1 LYS A   2      -6.670  -3.354   7.818  0.00  0.00    -0.089 HD
ATOM     31  HZ2 LYS A   2      -6.899  -5.030   7.659  0.00  0.00    -0.089 HD
ATOM     32  HZ3 LYS A   2      -7.712  -3.959   6.620  0.00  0.00    -0.089 HD
ENDBRANCH  28  29
ENDBRANCH  27  28
ENDBRANCH  26  27
ENDBRANCH  25  26
ENDBRANCH  17  25
ENDBRANCH  13  17
ENDBRANCH  12  15
BRANCH  12  33
ATOM     33  CB  LEU A   3     -15.062  -3.907  12.985  0.00  0.00    +0.029 C 
BRANCH  33  34
ATOM     34  CG  LEU A   3     -15.488  -4.508  14.324  0.00  0.00    +0.002 C 
ATOM     35  CD2 LEU A   3     -15.398  -3.466  15.421  0.00  0.00    +0.000 C 
ATOM     36  CD1 LEU A   3     -16.905  -5.049  14.213  0.00  0.00    +0.000 C 
ENDBRANCH  33  34
ENDBRANCH  12  33
ENDBRANCH   8  12
ENDBRANCH   6  10
ENDBRANCH   2   6
ENDBRANCH   1   3
BRANCH   1  37
ATOM     37  C   GLY A   5      -7.596  -8.605  10.821  0.00  0.00    +0.243 C 
ATOM     38  O   GLY A   5      -7.339  -8.949  11.975  0.00  0.00    -0.273 OA
ATOM     39  N   ILE A   6      -7.446  -9.407   9.772  0.00  0.00    -0.297 N 
ATOM     40  H   ILE A   6      -7.669  -9.045   8.823  0.00  0.00    +0.150 HD
BRANCH  39  41
ATOM     41  CA  ILE A   6      -6.978 -10.780   9.914  0.00  0.00    +0.149 C 
BRANCH  41  42
ATOM     42  C   ILE A   6      -5.699 -11.012   9.116  0.00  0.00    +0.241 C 
ATOM     43  N   LEU A   7      -4.749 -11.715   9.724  0.00  0.00    -0.297 N 
ATOM     44  H   LEU A   7      -4.918 -12.065  10.689  0.00  0.00    +0.150 HD
ATOM     45  O   ILE A   6      -5.579 -10.566   7.974  0.00  0.00    -0.273 OA
BRANCH  43  46
ATOM     46  CA  LEU A   7      -3.476 -12.010   9.077  0.00  0.00    +0.149 C 
BRANCH  46  47
ATOM     47  C   LEU A   7      -3.113 -13.484   9.205  0.00  0.00    +0.241 C 
ATOM     48  O   LEU A   7      -2.966 -14.003  10.311  0.00  0.00    -0.273 OA
ATOM     49  N   ALA A   8      -2.962 -14.151   8.066  0.00  0.00    -0.297 N 
ATOM     50  H   ALA A   8      -3.113 -13.654   7.165  0.00  0.00    +0.150 HD
BRANCH  49  51
ATOM     51  CA  ALA A   8      -2.590 -15.561   8.044  0.00  0.00    +0.149 C 
ATOM     52  CB  ALA A   8      -3.551 -16.348   7.173  0.00  0.00    +0.031 C 
BRANCH  51  53
ATOM     53  C   ALA A   8      -1.160 -15.734   7.546  0.00  0.00    +0.241 C 
ATOM     54  N   GLU A   9      -0.344 -16.439   8.323  0.00  0.00    -0.298 N 
ATOM     55  H   GLU A   9      -0.704 -16.836   9.214  0.00  0.00    +0.150 HD
ATOM     56  O   ALA A   8      -0.802 -15.237   6.479  0.00  0.00    -0.273 OA
BRANCH  54  57
ATOM     57  CA  GLU A   9       1.046 -16.666   7.948  0.00  0.00    +0.137 C 
BRANCH  57  58
ATOM     58  C   GLU A   9       1.401 -18.145   8.039  0.00  0.00    +0.227 C 
ATOM     59  O   GLU A   9       0.891 -18.867   8.896  0.00  0.00    -0.286 OA
ENDBRANCH  57  58
BRANCH  57  60
ATOM     60  CB  GLU A   9       1.980 -15.837   8.830  0.00  0.00    +0.039 C 
BRANCH  60  61
ATOM     61  CG  GLU A   9       1.771 -14.335   8.699  0.00  0.00    +0.116 C 
BRANCH  61  62
ATOM     62  CD  GLU A   9       2.718 -13.530   9.564  0.00  0.00    +0.365 C 
ATOM     63  OE2 GLU A   9       2.390 -13.286  10.742  0.00  0.00    -0.246 OA
ATOM     64  OE1 GLU A   9       3.791 -13.135   9.064  0.00  0.00    -0.246 OA
ENDBRANCH  61  62
ENDBRANCH  60  61
ENDBRANCH  57  60
ENDBRANCH  54  57
ENDBRANCH  51  53
ENDBRANCH  49  51
ENDBRANCH  46  47
BRANCH  46  65
ATOM     65  CB  LEU A   7      -2.361 -11.151   9.671  0.00  0.00    +0.029 C 
BRANCH  65  66
ATOM     66  CG  LEU A   7      -0.956 -11.407   9.121  0.00  0.00    +0.002 C 
ATOM     67  CD2 LEU A   7       0.079 -10.623   9.912  0.00  0.00    +0.000 C 
ATOM     68  CD1 LEU A   7      -0.883 -11.063   7.641  0.00  0.00    +0.000 C 
ENDBRANCH  65  66
ENDBRANCH  46  65
ENDBRANCH  43  46
ENDBRANCH  41  42
BRANCH  41  69
ATOM     69  CB  ILE A   6      -8.041 -11.796   9.453  0.00  0.00    +0.027 C 
ATOM     70  CG2 ILE A   6      -7.646 -13.213   9.861  0.00  0.00    +0.002 C 
BRANCH  69  71
ATOM     71  CG1 ILE A   6      -9.424 -11.421   9.990  0.00  0.00    +0.002 C 
ATOM     72  CD1 ILE A   6      -9.528 -11.454  11.490  0.00  0.00    +0.000 C 
ENDBRANCH  69  71
ENDBRANCH  41  69
ENDBRANCH  39  41
ENDBRANCH   1  37
TORSDOF 32
REMARK  Name = ../refined-set-2016/4xu0/4xu0_pocket.pdb
REMARK  231 active torsions:
REMARK  status: ('A' for Active; 'I' for Inactive)
REMARK    1  A    between atoms: _1  and  _3
REMARK    2  A    between atoms: _3  and  _4
REMARK    3  A    between atoms: _3  and  _6
REMARK    4  A    between atoms: _6  and  _7
REMARK    5  A    between atoms: _10  and  _12
REMARK    6  A    between atoms: _12  and  _13
REMARK    7  A    between atoms: _15  and  _17
REMARK    8  A    between atoms: _17  and  _18
REMARK    9  A    between atoms: _17  and  _20
REMARK   10  A    between atoms: _20  and  _21
REMARK   11  A    between atoms: _23  and  _25
REMARK   12  A    between atoms: _25  and  _26
REMARK   13  A    between atoms: _25  and  _28
REMARK   14  A    between atoms: _28  and  _29
REMARK   15  A    between atoms: _32  and  _34
REMARK   16  A    between atoms: _34  and  _35
REMARK   17  A    between atoms: _34  and  _37
REMARK   18  A    between atoms: _37  and  _38
REMARK   19  A    between atoms: _43  and  _45
REMARK   20  A    between atoms: _45  and  _46
REMARK   21  A    between atoms: _49  and  _51
REMARK   22  A    between atoms: _51  and  _52
REMARK   23  A    between atoms: _51  and  _54
REMARK   24  A    between atoms: _54  and  _55
REMARK   25  A    between atoms: _58  and  _60
REMARK   26  A    between atoms: _60  and  _61
REMARK   27  A    between atoms: _60  and  _63
REMARK   28  A    between atoms: _63  and  _64
REMARK   29  A    between atoms: _67  and  _69
REMARK   30  A    between atoms: _69  and  _70
REMARK   31  A    between atoms: _69  and  _72
REMARK   32  A    between atoms: _72  and  _73
REMARK   33  A    between atoms: _76  and  _78
REMARK   34  A    between atoms: _78  and  _79
REMARK   35  A    between atoms: _82  and  _84
REMARK   36  A    between atoms: _84  and  _85
REMARK   37  A    between atoms: _84  and  _87
REMARK   38  A    between atoms: _87  and  _88
REMARK   39  A    between atoms: _88  and  _89
REMARK   40  A    between atoms: _94  and  _96
REMARK   41  A    between atoms: _96  and  _97
REMARK   42  A    between atoms: _96  and  _99
REMARK   43  A    between atoms: _99  and  _100
REMARK   44  A    between atoms: _103  and  _105
REMARK   45  A    between atoms: _105  and  _106
REMARK   46  A    between atoms: _109  and  _111
REMARK   47  A    between atoms: _111  and  _112
REMARK   48  A    between atoms: _114  and  _116
REMARK   49  A    between atoms: _116  and  _117
REMARK   50  A    between atoms: _116  and  _119
REMARK   51  A    between atoms: _119  and  _120
REMARK   52  A    between atoms: _120  and  _121
REMARK   53  A    between atoms: _121  and  _122
REMARK   54  A    between atoms: _131  and  _133
REMARK   55  A    between atoms: _133  and  _134
REMARK   56  A    between atoms: _136  and  _138
REMARK   57  A    between atoms: _138  and  _139
REMARK   58  A    between atoms: _138  and  _141
REMARK   59  A    between atoms: _141  and  _142
REMARK   60  A    between atoms: _142  and  _143
REMARK   61  A    between atoms: _143  and  _144
REMARK   62  A    between atoms: _153  and  _155
REMARK   63  A    between atoms: _155  and  _156
REMARK   64  A    between atoms: _155  and  _158
REMARK   65  A    between atoms: _158  and  _159
REMARK   66  A    between atoms: _164  and  _166
REMARK   67  A    between atoms: _166  and  _167
REMARK   68  A    between atoms: _169  and  _171
REMARK   69  A    between atoms: _171  and  _172
REMARK   70  A    between atoms: _171  and  _174
REMARK   71  A    between atoms: _174  and  _175
REMARK   72  A    between atoms: _175  and  _176
REMARK   73  A    between atoms: _176  and  _177
REMARK   74  A    between atoms: _186  and  _188
REMARK   75  A    between atoms: _188  and  _189
REMARK   76  A    between atoms: _191  and  _193
REMARK   77  A    between atoms: _193  and  _194
REMARK   78  A    between atoms: _193  and  _196
REMARK   79  A    between atoms: _196  and  _197
REMARK   80  A    between atoms: _207  and  _209
REMARK   81  A    between atoms: _209  and  _210
REMARK   82  A    between atoms: _213  and  _215
REMARK   83  A    between atoms: _215  and  _216
REMARK   84  A    between atoms: _219  and  _221
REMARK   85  A    between atoms: _221  and  _222
REMARK   86  A    between atoms: _221  and  _224
REMARK   87  A    between atoms: _224  and  _225
REMARK   88  A    between atoms: _228  and  _230
REMARK   89  A    between atoms: _230  and  _231
REMARK   90  A    between atoms: _230  and  _233
REMARK   91  A    between atoms: _233  and  _234
REMARK   92  A    between atoms: _234  and  _235
REMARK   93  A    between atoms: _240  and  _242
REMARK   94  A    between atoms: _242  and  _243
REMARK   95  A    between atoms: _242  and  _245
REMARK   96  A    between atoms: _245  and  _246
REMARK   97  A    between atoms: _249  and  _251
REMARK   98  A    between atoms: _251  and  _252
REMARK   99  A    between atoms: _251  and  _254
REMARK  100  A    between atoms: _254  and  _255
REMARK  101  A    between atoms: _258  and  _260
REMARK  102  A    between atoms: _260  and  _261
REMARK  103  A    between atoms: _260  and  _263
REMARK  104  A    between atoms: _263  and  _264
REMARK  105  A    between atoms: _267  and  _269
REMARK  106  A    between atoms: _269  and  _270
REMARK  107  A    between atoms: _269  and  _272
REMARK  108  A    between atoms: _272  and  _273
REMARK  109  A    between atoms: _275  and  _277
REMARK  110  A    between atoms: _277  and  _278
REMARK  111  A    between atoms: _277  and  _280
REMARK  112  A    between atoms: _283  and  _285
REMARK  113  A    between atoms: _285  and  _286
REMARK  114  A    between atoms: _285  and  _288
REMARK  115  A    between atoms: _288  and  _289
REMARK  116  A    between atoms: _289  and  _290
REMARK  117  A    between atoms: _290  and  _291
REMARK  118  A    between atoms: _291  and  _292
REMARK  119  A    between atoms: _297  and  _298
REMARK  120  A    between atoms: _303  and  _305
REMARK  121  A    between atoms: _305  and  _306
REMARK  122  A    between atoms: _305  and  _308
REMARK  123  A    between atoms: _308  and  _309
REMARK  124  A    between atoms: _314  and  _316
REMARK  125  A    between atoms: _316  and  _317
REMARK  126  A    between atoms: _316  and  _319
REMARK  127  A    between atoms: _319  and  _320
REMARK  128  A    between atoms: _323  and  _325
REMARK  129  A    between atoms: _325  and  _326
REMARK  130  A    between atoms: _325  and  _328
REMARK  131  A    between atoms: _331  and  _333
REMARK  132  A    between atoms: _333  and  _334
REMARK  133  A    between atoms: _336  and  _338
REMARK  134  A    between atoms: _338  and  _339
REMARK  135  A    between atoms: _338  and  _341
REMARK  136  A    between atoms: _341  and  _342
REMARK  137  A    between atoms: _342  and  _343
REMARK  138  A    between atoms: _343  and  _344
REMARK  139  A    between atoms: _344  and  _345
REMARK  140  A    between atoms: _349  and  _351
REMARK  141  A    between atoms: _351  and  _352
REMARK  142  A    between atoms: _351  and  _354
REMARK  143  A    between atoms: _354  and  _355
REMARK  144  A    between atoms: _358  and  _360
REMARK  145  A    between atoms: _360  and  _361
REMARK  146  A    between atoms: _364  and  _366
REMARK  147  A    between atoms: _366  and  _367
REMARK  148  A    between atoms: _369  and  _371
REMARK  149  A    between atoms: _371  and  _372
REMARK  150  A    between atoms: _371  and  _374
REMARK  151  A    between atoms: _374  and  _375
REMARK  152  A    between atoms: _378  and  _380
REMARK  153  A    between atoms: _380  and  _381
REMARK  154  A    between atoms: _380  and  _383
REMARK  155  A    between atoms: _383  and  _384
REMARK  156  A    between atoms: _387  and  _389
REMARK  157  A    between atoms: _389  and  _390
REMARK  158  A    between atoms: _393  and  _395
REMARK  159  A    between atoms: _395  and  _396
REMARK  160  A    between atoms: _395  and  _398
REMARK  161  A    between atoms: _398  and  _399
REMARK  162  A    between atoms: _399  and  _400
REMARK  163  A    between atoms: _403  and  _405
REMARK  164  A    between atoms: _405  and  _406
REMARK  165  A    between atoms: _405  and  _408
REMARK  166  A    between atoms: _411  and  _413
REMARK  167  A    between atoms: _413  and  _414
REMARK  168  A    between atoms: _413  and  _416
REMARK  169  A    between atoms: _416  and  _417
REMARK  170  A    between atoms: _420  and  _422
REMARK  171  A    between atoms: _422  and  _423
REMARK  172  A    between atoms: _425  and  _427
REMARK  173  A    between atoms: _427  and  _428
REMARK  174  A    between atoms: _427  and  _430
REMARK  175  A    between atoms: _433  and  _435
REMARK  176  A    between atoms: _435  and  _436
REMARK  177  A    between atoms: _438  and  _440
REMARK  178  A    between atoms: _440  and  _441
REMARK  179  A    between atoms: _440  and  _443
REMARK  180  A    between atoms: _443  and  _444
REMARK  181  A    between atoms: _447  and  _449
REMARK  182  A    between atoms: _449  and  _450
REMARK  183  A    between atoms: _449  and  _452
REMARK  184  A    between atoms: _452  and  _453
REMARK  185  A    between atoms: _458  and  _460
REMARK  186  A    between atoms: _460  and  _461
REMARK  187  A    between atoms: _460  and  _463
REMARK  188  A    between atoms: _466  and  _468
REMARK  189  A    between atoms: _468  and  _469
REMARK  190  A    between atoms: _468  and  _471
REMARK  191  A    between atoms: _471  and  _472
REMARK  192  A    between atoms: _472  and  _473
REMARK  193  A    between atoms: _478  and  _480
REMARK  194  A    between atoms: _480  and  _481
REMARK  195  A    between atoms: _485  and  _486
REMARK  196  A    between atoms: _491  and  _493
REMARK  197  A    between atoms: _493  and  _494
REMARK  198  A    between atoms: _493  and  _496
REMARK  199  A    between atoms: _496  and  _497
REMARK  200  A    between atoms: _497  and  _498
REMARK  201  A    between atoms: _501  and  _503
REMARK  202  A    between atoms: _503  and  _504
REMARK  203  A    between atoms: _503  and  _506
REMARK  204  A    between atoms: _509  and  _511
REMARK  205  A    between atoms: _511  and  _512
REMARK  206  A    between atoms: _511  and  _514
REMARK  207  A    between atoms: _514  and  _515
REMARK  208  A    between atoms: _519  and  _520
REMARK  209  A    between atoms: _525  and  _527
REMARK  210  A    between atoms: _527  and  _528
REMARK  211  A    between atoms: _527  and  _530
REMARK  212  A    between atoms: _530  and  _531
REMARK  213  A    between atoms: _534  and  _536
REMARK  214  A    between atoms: _536  and  _537
REMARK  215  A    between atoms: _540  and  _542
REMARK  216  A    between atoms: _542  and  _543
REMARK  217  A    between atoms: _542  and  _545
REMARK  218  A    between atoms: _545  and  _546
REMARK  219  A    between atoms: _549  and  _551
REMARK  220  A    between atoms: _551  and  _552
REMARK  221  A    between atoms: _551  and  _554
REMARK  222  A    between atoms: _554  and  _555
REMARK  223  A    between atoms: _557  and  _559
REMARK  224  A    between atoms: _559  and  _560
REMARK  225  A    between atoms: _562  and  _564
REMARK  226  A    between atoms: _564  and  _565
REMARK  227  A    between atoms: _564  and  _567
REMARK  228  A    between atoms: _567  and  _568
REMARK  229  A    between atoms: _571  and  _573
REMARK  230  A    between atoms: _573  and  _574
REMARK  231  A    between atoms: _573  and  _576
REMARK                            x       y       z     vdW  Elec       q    Type
REMARK                         _______ _______ _______ _____ _____    ______ ____
ROOT
ATOM      1  C   VAL A   4      -6.756 -10.223  15.530  0.00  0.00    +0.241 C 
ATOM      2  O   VAL A   4      -6.333 -10.315  16.684  0.00  0.00    -0.273 OA
ATOM      3  N   GLY A   5      -7.029  -9.062  14.947  0.00  0.00    -0.295 N 
ATOM      4  H   GLY A   5      -7.255  -9.047  13.932  0.00  0.00    +0.150 HD
ENDROOT
BRANCH   3   5
ATOM      5  CA  GLY A   5      -7.021  -7.815  15.684  0.00  0.00    +0.176 C 
BRANCH   5   6
ATOM      6  C   GLY A   5      -8.413  -7.217  15.623  0.00  0.00    +0.243 C 
ATOM      7  N   LEU A   6      -9.143  -7.291  16.733  0.00  0.00    -0.297 N 
ATOM      8  H   LEU A   6      -8.716  -7.696  17.591  0.00  0.00    +0.150 HD
ATOM      9  O   GLY A   5      -8.826  -6.712  14.583  0.00  0.00    -0.273 OA
BRANCH   7  10
ATOM     10  CA  LEU A   6     -10.527  -6.821  16.784  0.00  0.00    +0.149 C 
BRANCH  10  11
ATOM     11  C   LEU A   6     -10.660  -5.583  17.667  0.00  0.00    +0.241 C 
ATOM     12  O   LEU A   6     -10.367  -5.636  18.860  0.00  0.00    -0.273 OA
ATOM     13  N   ASN A   7     -11.106  -4.473  17.084  0.00  0.00    -0.297 N 
ATOM     14  H   ASN A   7     -11.336  -4.488  16.070  0.00  0.00    +0.150 HD
BRANCH  13  15
ATOM     15  CA  ASN A   7     -11.279  -3.233  17.840  0.00  0.00    +0.158 C 
BRANCH  15  16
ATOM     16  C   ASN A   7     -12.513  -3.288  18.735  0.00  0.00    +0.241 C 
ATOM     17  N   VAL A   8     -12.297  -3.350  20.044  0.00  0.00    -0.298 N 
ATOM     18  H   VAL A   8     -11.321  -3.333  20.402  0.00  0.00    +0.150 HD
ATOM     19  O   ASN A   7     -13.644  -3.262  18.246  0.00  0.00    -0.273 OA
BRANCH  17  20
ATOM     20  CA  VAL A   8     -13.405  -3.441  20.987  0.00  0.00    +0.137 C 
BRANCH  20  21
ATOM     21  CB  VAL A   8     -13.063  -4.371  22.161  0.00  0.00    +0.026 C 
ATOM     22  CG2 VAL A   8     -14.193  -4.383  23.168  0.00  0.00    +0.002 C 
ATOM     23  CG1 VAL A   8     -12.783  -5.782  21.652  0.00  0.00    +0.002 C 
ENDBRANCH  20  21
BRANCH  20  24
ATOM     24  C   VAL A   8     -13.781  -2.058  21.512  0.00  0.00    +0.227 C 
ATOM     25  O   VAL A   8     -14.919  -1.616  21.352  0.00  0.00    -0.286 OA
ENDBRANCH  20  24
ENDBRANCH  17  20
ENDBRANCH  15  16
BRANCH  15  26
ATOM     26  CB  ASN A   7     -11.391  -2.028  16.904  0.00  0.00    +0.114 C 
BRANCH  26  27
ATOM     27  CG  ASN A   7     -10.154  -1.825  16.046  0.00  0.00    +0.222 C 
ATOM     28  ND2 ASN A   7      -8.981  -1.914  16.661  0.00  0.00    -0.329 N 
ATOM     29 HD21 ASN A   7      -8.942  -2.123  17.679  0.00  0.00    +0.145 HD
ATOM     30 HD22 ASN A   7      -8.101  -1.775  16.125  0.00  0.00    +0.145 HD
ATOM     31  OD1 ASN A   7     -10.255  -1.580  14.845  0.00  0.00    -0.275 OA
ENDBRANCH  26  27
ENDBRANCH  15  26
ENDBRANCH  13  15
ENDBRANCH  10  11
BRANCH  10  32
ATOM     32  CB  LEU A   6     -11.447  -7.936  17.297  0.00  0.00    +0.029 C 
BRANCH  32  33
ATOM     33  CG  LEU A   6     -12.890  -7.579  17.666  0.00  0.00    +0.002 C 
ATOM     34  CD2 LEU A   6     -13.579  -8.775  18.314  0.00  0.00    +0.000 C 
ATOM     35  CD1 LEU A   6     -13.669  -7.103  16.449  0.00  0.00    +0.000 C 
ENDBRANCH  32  33
ENDBRANCH  10  32
ENDBRANCH   7  10
ENDBRANCH   5   6
ENDBRANCH   3   5
BRANCH   1  36
ATOM     36  CA  VAL A   4      -6.991 -11.464  14.677  0.00  0.00    +0.149 C 
BRANCH  36  38
ATOM     37  C   GLY A   3      -5.223 -12.670  13.504  0.00  0.00    +0.243 C 
ATOM     38  N   VAL A   4      -5.818 -12.331  14.644  0.00  0.00    -0.297 N 
ATOM     39  H   VAL A   4      -5.435 -12.695  15.540  0.00  0.00    +0.150 HD
ATOM     40  O   GLY A   3      -5.629 -12.315  12.398  0.00  0.00    -0.273 OA
BRANCH  37  41
ATOM     41  CA  GLY A   3      -3.992 -13.542  13.628  0.00  0.00    +0.176 C 
BRANCH  41  44
ATOM     42  C   LEU A   2      -4.101 -15.911  13.137  0.00  0.00    +0.241 C 
ATOM     43  O   LEU A   2      -4.197 -16.202  14.325  0.00  0.00    -0.273 OA
ATOM     44  N   GLY A   3      -4.006 -14.660  12.703  0.00  0.00    -0.295 N 
ATOM     45  H   GLY A   3      -3.940 -14.478  11.681  0.00  0.00    +0.150 HD
BRANCH  42  46
ATOM     46  CA  LEU A   2      -4.102 -17.001  12.082  0.00  0.00    +0.149 C 
BRANCH  46  48
ATOM     47  C   VAL A   1      -1.861 -17.915  11.741  0.00  0.00    +0.238 C 
ATOM     48  N   LEU A   2      -3.042 -17.967  12.350  0.00  0.00    -0.297 N 
ATOM     49  H   LEU A   2      -3.216 -18.723  13.042  0.00  0.00    +0.150 HD
ATOM     50  O   VAL A   1      -1.581 -17.079  10.880  0.00  0.00    -0.274 OA
BRANCH  47  51
ATOM     51  CA  VAL A   1      -0.848 -18.979  12.151  0.00  0.00    +0.145 C 
BRANCH  51  52
ATOM     52  CB  VAL A   1       0.393 -18.304  12.762  0.00  0.00    +0.025 C 
ATOM     53  CG2 VAL A   1      -0.019 -17.283  13.814  0.00  0.00    +0.002 C 
ATOM     54  CG1 VAL A   1       1.318 -19.345  13.362  0.00  0.00    +0.002 C 
ENDBRANCH  51  52
BRANCH  51  55
ATOM     55  N   VAL A   1      -0.504 -19.806  11.002  0.00  0.00    -0.238 NA
ATOM     56  H   VAL A   1       0.197 -19.459  10.316  0.00  0.00    +0.142 HD
ENDBRANCH  51  55
ENDBRANCH  47  51
ENDBRANCH  46  48
BRANCH  46  57
ATOM     57  CB  LEU A   2      -5.471 -17.684  12.057  0.00  0.00    +0.029 C 
BRANCH  57  58
ATOM     58  CG  LEU A   2      -5.786 -18.662  10.928  0.00  0.00    +0.002 C 
ATOM     59  CD2 LEU A   2      -7.120 -19.337  11.194  0.00  0.00    +0.000 C 
ATOM     60  CD1 LEU A   2      -5.805 -17.947   9.589  0.00  0.00    +0.000 C 
ENDBRANCH  57  58
ENDBRANCH  46  57
ENDBRANCH  42  46
ENDBRANCH  41  44
ENDBRANCH  37  41
ENDBRANCH  36  38
BRANCH  36  61
ATOM     61  CB  VAL A   4      -8.229 -12.198  15.227  0.00  0.00    +0.027 C 
ATOM     62  CG2 VAL A   4      -9.417 -11.246  15.306  0.00  0.00    +0.002 C 
ATOM     63  CG1 VAL A   4      -8.565 -13.402  14.365  0.00  0.00    +0.002 C 
ENDBRANCH  36  61
ENDBRANCH   1  36
TORSDOF 25
REMARK  Name = ../refined-set-2016/4xu0/4xu0_pocket.pdb
REMARK  231 active torsions:
REMARK  status: ('A' for Active; 'I' for Inactive)
REMARK    1  A    between atoms: _1  and  _3
REMARK    2  A    between atoms: _3  and  _4
REMARK    3  A    between atoms: _3  and  _6
REMARK    4  A    between atoms: _6  and  _7
REMARK    5  A    between atoms: _10  and  _12
REMARK    6  A    between atoms: _12  and  _13
REMARK    7  A    between atoms: _15  and  _17
REMARK    8  A    between atoms: _17  and  _18
REMARK    9  A    between atoms: _17  and  _20
REMARK   10  A    between atoms: _20  and  _21
REMARK   11  A    between atoms: _23  and  _25
REMARK   12  A    between atoms: _25  and  _26
REMARK   13  A    between atoms: _25  and  _28
REMARK   14  A    between atoms: _28  and  _29
REMARK   15  A    between atoms: _32  and  _34
REMARK   16  A    between atoms: _34  and  _35
REMARK   17  A    between atoms: _34  and  _37
REMARK   18  A    between atoms: _37  and  _38
REMARK   19  A    between atoms: _43  and  _45
REMARK   20  A    between atoms: _45  and  _46
REMARK   21  A    between atoms: _49  and  _51
REMARK   22  A    between atoms: _51  and  _52
REMARK   23  A    between atoms: _51  and  _54
REMARK   24  A    between atoms: _54  and  _55
REMARK   25  A    between atoms: _58  and  _60
REMARK   26  A    between atoms: _60  and  _61
REMARK   27  A    between atoms: _60  and  _63
REMARK   28  A    between atoms: _63  and  _64
REMARK   29  A    between atoms: _67  and  _69
REMARK   30  A    between atoms: _69  and  _70
REMARK   31  A    between atoms: _69  and  _72
REMARK   32  A    between atoms: _72  and  _73
REMARK   33  A    between atoms: _76  and  _78
REMARK   34  A    between atoms: _78  and  _79
REMARK   35  A    between atoms: _82  and  _84
REMARK   36  A    between atoms: _84  and  _85
REMARK   37  A    between atoms: _84  and  _87
REMARK   38  A    between atoms: _87  and  _88
REMARK   39  A    between atoms: _88  and  _89
REMARK   40  A    between atoms: _94  and  _96
REMARK   41  A    between atoms: _96  and  _97
REMARK   42  A    between atoms: _96  and  _99
REMARK   43  A    between atoms: _99  and  _100
REMARK   44  A    between atoms: _103  and  _105
REMARK   45  A    between atoms: _105  and  _106
REMARK   46  A    between atoms: _109  and  _111
REMARK   47  A    between atoms: _111  and  _112
REMARK   48  A    between atoms: _114  and  _116
REMARK   49  A    between atoms: _116  and  _117
REMARK   50  A    between atoms: _116  and  _119
REMARK   51  A    between atoms: _119  and  _120
REMARK   52  A    between atoms: _120  and  _121
REMARK   53  A    between atoms: _121  and  _122
REMARK   54  A    between atoms: _131  and  _133
REMARK   55  A    between atoms: _133  and  _134
REMARK   56  A    between atoms: _136  and  _138
REMARK   57  A    between atoms: _138  and  _139
REMARK   58  A    between atoms: _138  and  _141
REMARK   59  A    between atoms: _141  and  _142
REMARK   60  A    between atoms: _142  and  _143
REMARK   61  A    between atoms: _143  and  _144
REMARK   62  A    between atoms: _153  and  _155
REMARK   63  A    between atoms: _155  and  _156
REMARK   64  A    between atoms: _155  and  _158
REMARK   65  A    between atoms: _158  and  _159
REMARK   66  A    between atoms: _164  and  _166
REMARK   67  A    between atoms: _166  and  _167
REMARK   68  A    between atoms: _169  and  _171
REMARK   69  A    between atoms: _171  and  _172
REMARK   70  A    between atoms: _171  and  _174
REMARK   71  A    between atoms: _174  and  _175
REMARK   72  A    between atoms: _175  and  _176
REMARK   73  A    between atoms: _176  and  _177
REMARK   74  A    between atoms: _186  and  _188
REMARK   75  A    between atoms: _188  and  _189
REMARK   76  A    between atoms: _191  and  _193
REMARK   77  A    between atoms: _193  and  _194
REMARK   78  A    between atoms: _193  and  _196
REMARK   79  A    between atoms: _196  and  _197
REMARK   80  A    between atoms: _207  and  _209
REMARK   81  A    between atoms: _209  and  _210
REMARK   82  A    between atoms: _213  and  _215
REMARK   83  A    between atoms: _215  and  _216
REMARK   84  A    between atoms: _219  and  _221
REMARK   85  A    between atoms: _221  and  _222
REMARK   86  A    between atoms: _221  and  _224
REMARK   87  A    between atoms: _224  and  _225
REMARK   88  A    between atoms: _228  and  _230
REMARK   89  A    between atoms: _230  and  _231
REMARK   90  A    between atoms: _230  and  _233
REMARK   91  A    between atoms: _233  and  _234
REMARK   92  A    between atoms: _234  and  _235
REMARK   93  A    between atoms: _240  and  _242
REMARK   94  A    between atoms: _242  and  _243
REMARK   95  A    between atoms: _242  and  _245
REMARK   96  A    between atoms: _245  and  _246
REMARK   97  A    between atoms: _249  and  _251
REMARK   98  A    between atoms: _251  and  _252
REMARK   99  A    between atoms: _251  and  _254
REMARK  100  A    between atoms: _254  and  _255
REMARK  101  A    between atoms: _258  and  _260
REMARK  102  A    between atoms: _260  and  _261
REMARK  103  A    between atoms: _260  and  _263
REMARK  104  A    between atoms: _263  and  _264
REMARK  105  A    between atoms: _267  and  _269
REMARK  106  A    between atoms: _269  and  _270
REMARK  107  A    between atoms: _269  and  _272
REMARK  108  A    between atoms: _272  and  _273
REMARK  109  A    between atoms: _275  and  _277
REMARK  110  A    between atoms: _277  and  _278
REMARK  111  A    between atoms: _277  and  _280
REMARK  112  A    between atoms: _283  and  _285
REMARK  113  A    between atoms: _285  and  _286
REMARK  114  A    between atoms: _285  and  _288
REMARK  115  A    between atoms: _288  and  _289
REMARK  116  A    between atoms: _289  and  _290
REMARK  117  A    between atoms: _290  and  _291
REMARK  118  A    between atoms: _291  and  _292
REMARK  119  A    between atoms: _297  and  _298
REMARK  120  A    between atoms: _303  and  _305
REMARK  121  A    between atoms: _305  and  _306
REMARK  122  A    between atoms: _305  and  _308
REMARK  123  A    between atoms: _308  and  _309
REMARK  124  A    between atoms: _314  and  _316
REMARK  125  A    between atoms: _316  and  _317
REMARK  126  A    between atoms: _316  and  _319
REMARK  127  A    between atoms: _319  and  _320
REMARK  128  A    between atoms: _323  and  _325
REMARK  129  A    between atoms: _325  and  _326
REMARK  130  A    between atoms: _325  and  _328
REMARK  131  A    between atoms: _331  and  _333
REMARK  132  A    between atoms: _333  and  _334
REMARK  133  A    between atoms: _336  and  _338
REMARK  134  A    between atoms: _338  and  _339
REMARK  135  A    between atoms: _338  and  _341
REMARK  136  A    between atoms: _341  and  _342
REMARK  137  A    between atoms: _342  and  _343
REMARK  138  A    between atoms: _343  and  _344
REMARK  139  A    between atoms: _344  and  _345
REMARK  140  A    between atoms: _349  and  _351
REMARK  141  A    between atoms: _351  and  _352
REMARK  142  A    between atoms: _351  and  _354
REMARK  143  A    between atoms: _354  and  _355
REMARK  144  A    between atoms: _358  and  _360
REMARK  145  A    between atoms: _360  and  _361
REMARK  146  A    between atoms: _364  and  _366
REMARK  147  A    between atoms: _366  and  _367
REMARK  148  A    between atoms: _369  and  _371
REMARK  149  A    between atoms: _371  and  _372
REMARK  150  A    between atoms: _371  and  _374
REMARK  151  A    between atoms: _374  and  _375
REMARK  152  A    between atoms: _378  and  _380
REMARK  153  A    between atoms: _380  and  _381
REMARK  154  A    between atoms: _380  and  _383
REMARK  155  A    between atoms: _383  and  _384
REMARK  156  A    between atoms: _387  and  _389
REMARK  157  A    between atoms: _389  and  _390
REMARK  158  A    between atoms: _393  and  _395
REMARK  159  A    between atoms: _395  and  _396
REMARK  160  A    between atoms: _395  and  _398
REMARK  161  A    between atoms: _398  and  _399
REMARK  162  A    between atoms: _399  and  _400
REMARK  163  A    between atoms: _403  and  _405
REMARK  164  A    between atoms: _405  and  _406
REMARK  165  A    between atoms: _405  and  _408
REMARK  166  A    between atoms: _411  and  _413
REMARK  167  A    between atoms: _413  and  _414
REMARK  168  A    between atoms: _413  and  _416
REMARK  169  A    between atoms: _416  and  _417
REMARK  170  A    between atoms: _420  and  _422
REMARK  171  A    between atoms: _422  and  _423
REMARK  172  A    between atoms: _425  and  _427
REMARK  173  A    between atoms: _427  and  _428
REMARK  174  A    between atoms: _427  and  _430
REMARK  175  A    between atoms: _433  and  _435
REMARK  176  A    between atoms: _435  and  _436
REMARK  177  A    between atoms: _438  and  _440
REMARK  178  A    between atoms: _440  and  _441
REMARK  179  A    between atoms: _440  and  _443
REMARK  180  A    between atoms: _443  and  _444
REMARK  181  A    between atoms: _447  and  _449
REMARK  182  A    between atoms: _449  and  _450
REMARK  183  A    between atoms: _449  and  _452
REMARK  184  A    between atoms: _452  and  _453
REMARK  185  A    between atoms: _458  and  _460
REMARK  186  A    between atoms: _460  and  _461
REMARK  187  A    between atoms: _460  and  _463
REMARK  188  A    between atoms: _466  and  _468
REMARK  189  A    between atoms: _468  and  _469
REMARK  190  A    between atoms: _468  and  _471
REMARK  191  A    between atoms: _471  and  _472
REMARK  192  A    between atoms: _472  and  _473
REMARK  193  A    between atoms: _478  and  _480
REMARK  194  A    between atoms: _480  and  _481
REMARK  195  A    between atoms: _485  and  _486
REMARK  196  A    between atoms: _491  and  _493
REMARK  197  A    between atoms: _493  and  _494
REMARK  198  A    between atoms: _493  and  _496
REMARK  199  A    between atoms: _496  and  _497
REMARK  200  A    between atoms: _497  and  _498
REMARK  201  A    between atoms: _501  and  _503
REMARK  202  A    between atoms: _503  and  _504
REMARK  203  A    between atoms: _503  and  _506
REMARK  204  A    between atoms: _509  and  _511
REMARK  205  A    between atoms: _511  and  _512
REMARK  206  A    between atoms: _511  and  _514
REMARK  207  A    between atoms: _514  and  _515
REMARK  208  A    between atoms: _519  and  _520
REMARK  209  A    between atoms: _525  and  _527
REMARK  210  A    between atoms: _527  and  _528
REMARK  211  A    between atoms: _527  and  _530
REMARK  212  A    between atoms: _530  and  _531
REMARK  213  A    between atoms: _534  and  _536
REMARK  214  A    between atoms: _536  and  _537
REMARK  215  A    between atoms: _540  and  _542
REMARK  216  A    between atoms: _542  and  _543
REMARK  217  A    between atoms: _542  and  _545
REMARK  218  A    between atoms: _545  and  _546
REMARK  219  A    between atoms: _549  and  _551
REMARK  220  A    between atoms: _551  and  _552
REMARK  221  A    between atoms: _551  and  _554
REMARK  222  A    between atoms: _554  and  _555
REMARK  223  A    between atoms: _557  and  _559
REMARK  224  A    between atoms: _559  and  _560
REMARK  225  A    between atoms: _562  and  _564
REMARK  226  A    between atoms: _564  and  _565
REMARK  227  A    between atoms: _564  and  _567
REMARK  228  A    between atoms: _567  and  _568
REMARK  229  A    between atoms: _571  and  _573
REMARK  230  A    between atoms: _573  and  _574
REMARK  231  A    between atoms: _573  and  _576
REMARK                            x       y       z     vdW  Elec       q    Type
REMARK                         _______ _______ _______ _____ _____    ______ ____
ROOT
ATOM      1  C   GLN A   1     -10.689   2.340  19.633  0.00  0.00    +0.238 C 
ATOM      2  N   ALA A   2     -10.222   3.519  20.028  0.00  0.00    -0.297 N 
ATOM      3  H   ALA A   2      -9.556   3.562  20.826  0.00  0.00    +0.150 HD
ATOM      4  O   GLN A   1     -11.516   2.217  18.731  0.00  0.00    -0.274 OA
ENDROOT
BRANCH   2   5
ATOM      5  CA  ALA A   2     -10.623   4.753  19.367  0.00  0.00    +0.149 C 
ATOM      6  CB  ALA A   2     -10.321   5.955  20.249  0.00  0.00    +0.031 C 
BRANCH   5   7
ATOM      7  C   ALA A   2      -9.919   4.882  18.023  0.00  0.00    +0.244 C 
ATOM      8  O   ALA A   2      -8.715   4.650  17.928  0.00  0.00    -0.273 OA
ATOM      9  N   PRO A   3     -10.673   5.244  16.975  0.00  0.00    -0.273 N 
ATOM     10  CD  PRO A   3     -12.132   5.449  17.012  0.00  0.00    +0.094 C 
ATOM     11  CG  PRO A   3     -12.517   5.439  15.560  0.00  0.00    +0.024 C 
ATOM     12  CB  PRO A   3     -11.322   5.956  14.834  0.00  0.00    +0.030 C 
ATOM     13  CA  PRO A   3     -10.133   5.397  15.620  0.00  0.00    +0.140 C 
BRANCH  13  14
ATOM     14  C   PRO A   3      -8.938   6.350  15.553  0.00  0.00    +0.227 C 
ATOM     15  O   PRO A   3      -8.011   6.107  14.781  0.00  0.00    -0.286 OA
ENDBRANCH  13  14
ENDBRANCH   5   7
ENDBRANCH   2   5
BRANCH   1  16
ATOM     16  CA  GLN A   1     -10.150   1.118  20.364  0.00  0.00    +0.145 C 
BRANCH  16  17
ATOM     17  N   GLN A   1     -11.225   0.379  21.010  0.00  0.00    -0.238 NA
ATOM     18  H   GLN A   1     -11.413  -0.599  20.712  0.00  0.00    +0.142 HD
ENDBRANCH  16  17
BRANCH  16  19
ATOM     19  CB  GLN A   1      -9.393   0.212  19.389  0.00  0.00    +0.036 C 
BRANCH  19  20
ATOM     20  CG  GLN A   1      -8.104   0.813  18.848  0.00  0.00    +0.087 C 
BRANCH  20  21
ATOM     21  CD  GLN A   1      -6.978   0.777  19.859  0.00  0.00    +0.219 C 
ATOM     22  NE2 GLN A   1      -6.770   1.890  20.553  0.00  0.00    -0.329 N 
ATOM     23 HE21 GLN A   1      -6.014   1.924  21.266  0.00  0.00    +0.145 HD
ATOM     24 HE22 GLN A   1      -7.363   2.727  20.383  0.00  0.00    +0.145 HD
ATOM     25  OE1 GLN A   1      -6.306  -0.241  20.020  0.00  0.00    -0.275 OA
ENDBRANCH  20  21
ENDBRANCH  19  20
ENDBRANCH  16  19
ENDBRANCH   1  16
TORSDOF 8
REMARK  Name = ../refined-set-2016/4xu0/4xu0_pocket.pdb
REMARK  231 active torsions:
REMARK  status: ('A' for Active; 'I' for Inactive)
REMARK    1  A    between atoms: _1  and  _3
REMARK    2  A    between atoms: _3  and  _4
REMARK    3  A    between atoms: _3  and  _6
REMARK    4  A    between atoms: _6  and  _7
REMARK    5  A    between atoms: _10  and  _12
REMARK    6  A    between atoms: _12  and  _13
REMARK    7  A    between atoms: _15  and  _17
REMARK    8  A    between atoms: _17  and  _18
REMARK    9  A    between atoms: _17  and  _20
REMARK   10  A    between atoms: _20  and  _21
REMARK   11  A    between atoms: _23  and  _25
REMARK   12  A    between atoms: _25  and  _26
REMARK   13  A    between atoms: _25  and  _28
REMARK   14  A    between atoms: _28  and  _29
REMARK   15  A    between atoms: _32  and  _34
REMARK   16  A    between atoms: _34  and  _35
REMARK   17  A    between atoms: _34  and  _37
REMARK   18  A    between atoms: _37  and  _38
REMARK   19  A    between atoms: _43  and  _45
REMARK   20  A    between atoms: _45  and  _46
REMARK   21  A    between atoms: _49  and  _51
REMARK   22  A    between atoms: _51  and  _52
REMARK   23  A    between atoms: _51  and  _54
REMARK   24  A    between atoms: _54  and  _55
REMARK   25  A    between atoms: _58  and  _60
REMARK   26  A    between atoms: _60  and  _61
REMARK   27  A    between atoms: _60  and  _63
REMARK   28  A    between atoms: _63  and  _64
REMARK   29  A    between atoms: _67  and  _69
REMARK   30  A    between atoms: _69  and  _70
REMARK   31  A    between atoms: _69  and  _72
REMARK   32  A    between atoms: _72  and  _73
REMARK   33  A    between atoms: _76  and  _78
REMARK   34  A    between atoms: _78  and  _79
REMARK   35  A    between atoms: _82  and  _84
REMARK   36  A    between atoms: _84  and  _85
REMARK   37  A    between atoms: _84  and  _87
REMARK   38  A    between atoms: _87  and  _88
REMARK   39  A    between atoms: _88  and  _89
REMARK   40  A    between atoms: _94  and  _96
REMARK   41  A    between atoms: _96  and  _97
REMARK   42  A    between atoms: _96  and  _99
REMARK   43  A    between atoms: _99  and  _100
REMARK   44  A    between atoms: _103  and  _105
REMARK   45  A    between atoms: _105  and  _106
REMARK   46  A    between atoms: _109  and  _111
REMARK   47  A    between atoms: _111  and  _112
REMARK   48  A    between atoms: _114  and  _116
REMARK   49  A    between atoms: _116  and  _117
REMARK   50  A    between atoms: _116  and  _119
REMARK   51  A    between atoms: _119  and  _120
REMARK   52  A    between atoms: _120  and  _121
REMARK   53  A    between atoms: _121  and  _122
REMARK   54  A    between atoms: _131  and  _133
REMARK   55  A    between atoms: _133  and  _134
REMARK   56  A    between atoms: _136  and  _138
REMARK   57  A    between atoms: _138  and  _139
REMARK   58  A    between atoms: _138  and  _141
REMARK   59  A    between atoms: _141  and  _142
REMARK   60  A    between atoms: _142  and  _143
REMARK   61  A    between atoms: _143  and  _144
REMARK   62  A    between atoms: _153  and  _155
REMARK   63  A    between atoms: _155  and  _156
REMARK   64  A    between atoms: _155  and  _158
REMARK   65  A    between atoms: _158  and  _159
REMARK   66  A    between atoms: _164  and  _166
REMARK   67  A    between atoms: _166  and  _167
REMARK   68  A    between atoms: _169  and  _171
REMARK   69  A    between atoms: _171  and  _172
REMARK   70  A    between atoms: _171  and  _174
REMARK   71  A    between atoms: _174  and  _175
REMARK   72  A    between atoms: _175  and  _176
REMARK   73  A    between atoms: _176  and  _177
REMARK   74  A    between atoms: _186  and  _188
REMARK   75  A    between atoms: _188  and  _189
REMARK   76  A    between atoms: _191  and  _193
REMARK   77  A    between atoms: _193  and  _194
REMARK   78  A    between atoms: _193  and  _196
REMARK   79  A    between atoms: _196  and  _197
REMARK   80  A    between atoms: _207  and  _209
REMARK   81  A    between atoms: _209  and  _210
REMARK   82  A    between atoms: _213  and  _215
REMARK   83  A    between atoms: _215  and  _216
REMARK   84  A    between atoms: _219  and  _221
REMARK   85  A    between atoms: _221  and  _222
REMARK   86  A    between atoms: _221  and  _224
REMARK   87  A    between atoms: _224  and  _225
REMARK   88  A    between atoms: _228  and  _230
REMARK   89  A    between atoms: _230  and  _231
REMARK   90  A    between atoms: _230  and  _233
REMARK   91  A    between atoms: _233  and  _234
REMARK   92  A    between atoms: _234  and  _235
REMARK   93  A    between atoms: _240  and  _242
REMARK   94  A    between atoms: _242  and  _243
REMARK   95  A    between atoms: _242  and  _245
REMARK   96  A    between atoms: _245  and  _246
REMARK   97  A    between atoms: _249  and  _251
REMARK   98  A    between atoms: _251  and  _252
REMARK   99  A    between atoms: _251  and  _254
REMARK  100  A    between atoms: _254  and  _255
REMARK  101  A    between atoms: _258  and  _260
REMARK  102  A    between atoms: _260  and  _261
REMARK  103  A    between atoms: _260  and  _263
REMARK  104  A    between atoms: _263  and  _264
REMARK  105  A    between atoms: _267  and  _269
REMARK  106  A    between atoms: _269  and  _270
REMARK  107  A    between atoms: _269  and  _272
REMARK  108  A    between atoms: _272  and  _273
REMARK  109  A    between atoms: _275  and  _277
REMARK  110  A    between atoms: _277  and  _278
REMARK  111  A    between atoms: _277  and  _280
REMARK  112  A    between atoms: _283  and  _285
REMARK  113  A    between atoms: _285  and  _286
REMARK  114  A    between atoms: _285  and  _288
REMARK  115  A    between atoms: _288  and  _289
REMARK  116  A    between atoms: _289  and  _290
REMARK  117  A    between atoms: _290  and  _291
REMARK  118  A    between atoms: _291  and  _292
REMARK  119  A    between atoms: _297  and  _298
REMARK  120  A    between atoms: _303  and  _305
REMARK  121  A    between atoms: _305  and  _306
REMARK  122  A    between atoms: _305  and  _308
REMARK  123  A    between atoms: _308  and  _309
REMARK  124  A    between atoms: _314  and  _316
REMARK  125  A    between atoms: _316  and  _317
REMARK  126  A    between atoms: _316  and  _319
REMARK  127  A    between atoms: _319  and  _320
REMARK  128  A    between atoms: _323  and  _325
REMARK  129  A    between atoms: _325  and  _326
REMARK  130  A    between atoms: _325  and  _328
REMARK  131  A    between atoms: _331  and  _333
REMARK  132  A    between atoms: _333  and  _334
REMARK  133  A    between atoms: _336  and  _338
REMARK  134  A    between atoms: _338  and  _339
REMARK  135  A    between atoms: _338  and  _341
REMARK  136  A    between atoms: _341  and  _342
REMARK  137  A    between atoms: _342  and  _343
REMARK  138  A    between atoms: _343  and  _344
REMARK  139  A    between atoms: _344  and  _345
REMARK  140  A    between atoms: _349  and  _351
REMARK  141  A    between atoms: _351  and  _352
REMARK  142  A    between atoms: _351  and  _354
REMARK  143  A    between atoms: _354  and  _355
REMARK  144  A    between atoms: _358  and  _360
REMARK  145  A    between atoms: _360  and  _361
REMARK  146  A    between atoms: _364  and  _366
REMARK  147  A    between atoms: _366  and  _367
REMARK  148  A    between atoms: _369  and  _371
REMARK  149  A    between atoms: _371  and  _372
REMARK  150  A    between atoms: _371  and  _374
REMARK  151  A    between atoms: _374  and  _375
REMARK  152  A    between atoms: _378  and  _380
REMARK  153  A    between atoms: _380  and  _381
REMARK  154  A    between atoms: _380  and  _383
REMARK  155  A    between atoms: _383  and  _384
REMARK  156  A    between atoms: _387  and  _389
REMARK  157  A    between atoms: _389  and  _390
REMARK  158  A    between atoms: _393  and  _395
REMARK  159  A    between atoms: _395  and  _396
REMARK  160  A    between atoms: _395  and  _398
REMARK  161  A    between atoms: _398  and  _399
REMARK  162  A    between atoms: _399  and  _400
REMARK  163  A    between atoms: _403  and  _405
REMARK  164  A    between atoms: _405  and  _406
REMARK  165  A    between atoms: _405  and  _408
REMARK  166  A    between atoms: _411  and  _413
REMARK  167  A    between atoms: _413  and  _414
REMARK  168  A    between atoms: _413  and  _416
REMARK  169  A    between atoms: _416  and  _417
REMARK  170  A    between atoms: _420  and  _422
REMARK  171  A    between atoms: _422  and  _423
REMARK  172  A    between atoms: _425  and  _427
REMARK  173  A    between atoms: _427  and  _428
REMARK  174  A    between atoms: _427  and  _430
REMARK  175  A    between atoms: _433  and  _435
REMARK  176  A    between atoms: _435  and  _436
REMARK  177  A    between atoms: _438  and  _440
REMARK  178  A    between atoms: _440  and  _441
REMARK  179  A    between atoms: _440  and  _443
REMARK  180  A    between atoms: _443  and  _444
REMARK  181  A    between atoms: _447  and  _449
REMARK  182  A    between atoms: _449  and  _450
REMARK  183  A    between atoms: _449  and  _452
REMARK  184  A    between atoms: _452  and  _453
REMARK  185  A    between atoms: _458  and  _460
REMARK  186  A    between atoms: _460  and  _461
REMARK  187  A    between atoms: _460  and  _463
REMARK  188  A    between atoms: _466  and  _468
REMARK  189  A    between atoms: _468  and  _469
REMARK  190  A    between atoms: _468  and  _471
REMARK  191  A    between atoms: _471  and  _472
REMARK  192  A    between atoms: _472  and  _473
REMARK  193  A    between atoms: _478  and  _480
REMARK  194  A    between atoms: _480  and  _481
REMARK  195  A    between atoms: _485  and  _486
REMARK  196  A    between atoms: _491  and  _493
REMARK  197  A    between atoms: _493  and  _494
REMARK  198  A    between atoms: _493  and  _496
REMARK  199  A    between atoms: _496  and  _497
REMARK  200  A    between atoms: _497  and  _498
REMARK  201  A    between atoms: _501  and  _503
REMARK  202  A    between atoms: _503  and  _504
REMARK  203  A    between atoms: _503  and  _506
REMARK  204  A    between atoms: _509  and  _511
REMARK  205  A    between atoms: _511  and  _512
REMARK  206  A    between atoms: _511  and  _514
REMARK  207  A    between atoms: _514  and  _515
REMARK  208  A    between atoms: _519  and  _520
REMARK  209  A    between atoms: _525  and  _527
REMARK  210  A    between atoms: _527  and  _528
REMARK  211  A    between atoms: _527  and  _530
REMARK  212  A    between atoms: _530  and  _531
REMARK  213  A    between atoms: _534  and  _536
REMARK  214  A    between atoms: _536  and  _537
REMARK  215  A    between atoms: _540  and  _542
REMARK  216  A    between atoms: _542  and  _543
REMARK  217  A    between atoms: _542  and  _545
REMARK  218  A    between atoms: _545  and  _546
REMARK  219  A    between atoms: _549  and  _551
REMARK  220  A    between atoms: _551  and  _552
REMARK  221  A    between atoms: _551  and  _554
REMARK  222  A    between atoms: _554  and  _555
REMARK  223  A    between atoms: _557  and  _559
REMARK  224  A    between atoms: _559  and  _560
REMARK  225  A    between atoms: _562  and  _564
REMARK  226  A    between atoms: _564  and  _565
REMARK  227  A    between atoms: _564  and  _567
REMARK  228  A    between atoms: _567  and  _568
REMARK  229  A    between atoms: _571  and  _573
REMARK  230  A    between atoms: _573  and  _574
REMARK  231  A    between atoms: _573  and  _576
REMARK                            x       y       z     vdW  Elec       q    Type
REMARK                         _______ _______ _______ _____ _____    ______ ____
ROOT
ATOM      1  C   PRO A   4     -10.137   6.353   9.753  0.00  0.00    +0.241 C 
ATOM      2  O   PRO A   4     -11.282   6.788   9.857  0.00  0.00    -0.273 OA
ATOM      3  N   ASP A   5      -9.852   5.200   9.156  0.00  0.00    -0.297 N 
ATOM      4  H   ASP A   5      -8.862   4.885   9.102  0.00  0.00    +0.150 HD
ENDROOT
BRANCH   1   8
ATOM      5  C   ASP A   3      -7.801   5.403  11.566  0.00  0.00    +0.244 C 
ATOM      6  O   ASP A   3      -8.810   5.138  12.217  0.00  0.00    -0.273 OA
ATOM      7  N   PRO A   4      -7.778   6.365  10.631  0.00  0.00    -0.272 N 
ATOM      8  CA  PRO A   4      -8.973   7.164  10.336  0.00  0.00    +0.152 C 
ATOM      9  CB  PRO A   4      -8.460   8.196   9.322  0.00  0.00    +0.031 C 
ATOM     10  CG  PRO A   4      -7.236   7.599   8.745  0.00  0.00    +0.024 C 
ATOM     11  CD  PRO A   4      -6.610   6.815   9.856  0.00  0.00    +0.094 C 
BRANCH   5  12
ATOM     12  CA  ASP A   3      -6.505   4.627  11.804  0.00  0.00    +0.160 C 
BRANCH  12  14
ATOM     13  C   VAL A   2      -5.118   3.943  13.689  0.00  0.00    +0.241 C 
ATOM     14  N   ASP A   3      -6.287   4.382  13.229  0.00  0.00    -0.297 N 
ATOM     15  H   ASP A   3      -7.064   4.555  13.899  0.00  0.00    +0.150 HD
ATOM     16  O   VAL A   2      -4.139   3.773  12.960  0.00  0.00    -0.273 OA
BRANCH  13  17
ATOM     17  CA  VAL A   2      -5.020   3.638  15.187  0.00  0.00    +0.148 C 
BRANCH  17  20
ATOM     18  C   GLU A   1      -4.830   5.051  17.144  0.00  0.00    +0.238 C 
ATOM     19  O   GLU A   1      -3.677   4.669  17.344  0.00  0.00    -0.274 OA
ATOM     20  N   VAL A   2      -5.531   4.679  16.076  0.00  0.00    -0.297 N 
ATOM     21  H   VAL A   2      -6.446   5.131  15.873  0.00  0.00    +0.150 HD
BRANCH  18  22
ATOM     22  CA  GLU A   1      -5.515   5.989  18.135  0.00  0.00    +0.145 C 
BRANCH  22  23
ATOM     23  N   GLU A   1      -6.679   6.648  17.553  0.00  0.00    -0.238 NA
ATOM     24  H   GLU A   1      -7.613   6.201  17.645  0.00  0.00    +0.142 HD
ENDBRANCH  22  23
BRANCH  22  25
ATOM     25  CB  GLU A   1      -5.911   5.201  19.389  0.00  0.00    +0.038 C 
BRANCH  25  26
ATOM     26  CG  GLU A   1      -6.400   6.051  20.552  0.00  0.00    +0.116 C 
BRANCH  26  27
ATOM     27  CD  GLU A   1      -6.850   5.215  21.738  0.00  0.00    +0.365 C 
ATOM     28  OE2 GLU A   1      -6.336   5.438  22.854  0.00  0.00    -0.246 OA
ATOM     29  OE1 GLU A   1      -7.718   4.332  21.556  0.00  0.00    -0.246 OA
ENDBRANCH  26  27
ENDBRANCH  25  26
ENDBRANCH  22  25
ENDBRANCH  18  22
ENDBRANCH  17  20
BRANCH  17  30
ATOM     30  CB  VAL A   2      -5.737   2.294  15.460  0.00  0.00    +0.027 C 
ATOM     31  CG2 VAL A   2      -5.195   1.656  16.727  0.00  0.00    +0.002 C 
ATOM     32  CG1 VAL A   2      -7.243   2.493  15.569  0.00  0.00    +0.002 C 
ENDBRANCH  17  30
ENDBRANCH  13  17
ENDBRANCH  12  14
BRANCH  12  33
ATOM     33  CB  ASP A   3      -6.540   3.302  11.033  0.00  0.00    +0.143 C 
BRANCH  33  34
ATOM     34  CG  ASP A   3      -6.507   3.499   9.529  0.00  0.00    +0.367 C 
ATOM     35  OD2 ASP A   3      -5.400   3.650   8.972  0.00  0.00    -0.246 OA
ATOM     36  OD1 ASP A   3      -7.588   3.505   8.903  0.00  0.00    -0.246 OA
ENDBRANCH  33  34
ENDBRANCH  12  33
ENDBRANCH   5  12
ENDBRANCH   1   8
BRANCH   3  37
ATOM     37  CA  ASP A   5     -10.902   4.366   8.574  0.00  0.00    +0.160 C 
BRANCH  37  38
ATOM     38  C   ASP A   5     -11.316   3.254   9.528  0.00  0.00    +0.241 C 
ATOM     39  N   ALA A   6     -10.819   3.326  10.757  0.00  0.00    -0.297 N 
ATOM     40  H   ALA A   6     -10.208   4.128  11.013  0.00  0.00    +0.150 HD
ATOM     41  O   ASP A   5     -12.070   2.351   9.162  0.00  0.00    -0.273 OA
BRANCH  39  42
ATOM     42  CA  ALA A   6     -11.112   2.305  11.754  0.00  0.00    +0.149 C 
ATOM     43  CB  ALA A   6      -9.967   2.194  12.745  0.00  0.00    +0.031 C 
BRANCH  42  44
ATOM     44  C   ALA A   6     -12.413   2.585  12.494  0.00  0.00    +0.241 C 
ATOM     45  N   THR A   7     -12.960   1.538  13.098  0.00  0.00    -0.295 N 
ATOM     46  H   THR A   7     -12.566   0.592  12.922  0.00  0.00    +0.150 HD
ATOM     47  O   ALA A   6     -12.912   3.712  12.509  0.00  0.00    -0.273 OA
BRANCH  45  48
ATOM     48  CA  THR A   7     -14.093   1.673  13.998  0.00  0.00    +0.176 C 
BRANCH  48  49
ATOM     49  C   THR A   7     -13.946   0.629  15.095  0.00  0.00    +0.243 C 
ATOM     50  N   SER A   8     -14.816   0.685  16.095  0.00  0.00    -0.296 N 
ATOM     51  H   SER A   8     -15.527   1.444  16.109  0.00  0.00    +0.150 HD
ATOM     52  O   THR A   7     -13.049  -0.209  15.039  0.00  0.00    -0.273 OA
BRANCH  50  53
ATOM     53  CA  SER A   8     -14.797  -0.294  17.174  0.00  0.00    +0.166 C 
BRANCH  53  54
ATOM     54  CB  SER A   8     -16.216  -0.604  17.609  0.00  0.00    +0.229 C 
ATOM     55  OG  SER A   8     -17.154   0.067  17.189  0.00  0.00    -0.286 OA
ENDBRANCH  53  54
BRANCH  53  56
ATOM     56  C   SER A   8     -13.988   0.216  18.362  0.00  0.00    +0.165 C 
BRANCH  56  57
ATOM     57  O   SER A   8     -14.656   1.290  18.997  0.00  0.00    -0.380 OA
ATOM     58  H   SER A   8     -14.778   2.030  18.351  0.00  0.00    +0.211 HD
ENDBRANCH  56  57
ENDBRANCH  53  56
ENDBRANCH  50  53
ENDBRANCH  48  49
BRANCH  48  59
ATOM     59  CB  THR A   7     -15.442   1.499  13.273  0.00  0.00    +0.137 C 
ATOM     60  CG2 THR A   7     -15.646   0.048  12.850  0.00  0.00    +0.034 C 
BRANCH  59  61
ATOM     61  OG1 THR A   7     -16.507   1.896  14.146  0.00  0.00    -0.382 OA
ATOM     62  HG1 THR A   7     -16.388   2.845  14.400  0.00  0.00    +0.210 HD
ENDBRANCH  59  61
ENDBRANCH  48  59
ENDBRANCH  45  48
ENDBRANCH  42  44
ENDBRANCH  39  42
ENDBRANCH  37  38
BRANCH  37  63
ATOM     63  CB  ASP A   5     -10.442   3.770   7.241  0.00  0.00    +0.143 C 
BRANCH  63  64
ATOM     64  CG  ASP A   5     -10.317   4.814   6.151  0.00  0.00    +0.367 C 
ATOM     65  OD2 ASP A   5     -11.045   5.826   6.216  0.00  0.00    -0.246 OA
ATOM     66  OD1 ASP A   5      -9.495   4.624   5.230  0.00  0.00    -0.246 OA
ENDBRANCH  63  64
ENDBRANCH  37  63
ENDBRANCH   3  37
TORSDOF 27
REMARK  Name = ../refined-set-2016/4xu0/4xu0_pocket.pdb
REMARK  231 active torsions:
REMARK  status: ('A' for Active; 'I' for Inactive)
REMARK    1  A    between atoms: _1  and  _3
REMARK    2  A    between atoms: _3  and  _4
REMARK    3  A    between atoms: _3  and  _6
REMARK    4  A    between atoms: _6  and  _7
REMARK    5  A    between atoms: _10  and  _12
REMARK    6  A    between atoms: _12  and  _13
REMARK    7  A    between atoms: _15  and  _17
REMARK    8  A    between atoms: _17  and  _18
REMARK    9  A    between atoms: _17  and  _20
REMARK   10  A    between atoms: _20  and  _21
REMARK   11  A    between atoms: _23  and  _25
REMARK   12  A    between atoms: _25  and  _26
REMARK   13  A    between atoms: _25  and  _28
REMARK   14  A    between atoms: _28  and  _29
REMARK   15  A    between atoms: _32  and  _34
REMARK   16  A    between atoms: _34  and  _35
REMARK   17  A    between atoms: _34  and  _37
REMARK   18  A    between atoms: _37  and  _38
REMARK   19  A    between atoms: _43  and  _45
REMARK   20  A    between atoms: _45  and  _46
REMARK   21  A    between atoms: _49  and  _51
REMARK   22  A    between atoms: _51  and  _52
REMARK   23  A    between atoms: _51  and  _54
REMARK   24  A    between atoms: _54  and  _55
REMARK   25  A    between atoms: _58  and  _60
REMARK   26  A    between atoms: _60  and  _61
REMARK   27  A    between atoms: _60  and  _63
REMARK   28  A    between atoms: _63  and  _64
REMARK   29  A    between atoms: _67  and  _69
REMARK   30  A    between atoms: _69  and  _70
REMARK   31  A    between atoms: _69  and  _72
REMARK   32  A    between atoms: _72  and  _73
REMARK   33  A    between atoms: _76  and  _78
REMARK   34  A    between atoms: _78  and  _79
REMARK   35  A    between atoms: _82  and  _84
REMARK   36  A    between atoms: _84  and  _85
REMARK   37  A    between atoms: _84  and  _87
REMARK   38  A    between atoms: _87  and  _88
REMARK   39  A    between atoms: _88  and  _89
REMARK   40  A    between atoms: _94  and  _96
REMARK   41  A    between atoms: _96  and  _97
REMARK   42  A    between atoms: _96  and  _99
REMARK   43  A    between atoms: _99  and  _100
REMARK   44  A    between atoms: _103  and  _105
REMARK   45  A    between atoms: _105  and  _106
REMARK   46  A    between atoms: _109  and  _111
REMARK   47  A    between atoms: _111  and  _112
REMARK   48  A    between atoms: _114  and  _116
REMARK   49  A    between atoms: _116  and  _117
REMARK   50  A    between atoms: _116  and  _119
REMARK   51  A    between atoms: _119  and  _120
REMARK   52  A    between atoms: _120  and  _121
REMARK   53  A    between atoms: _121  and  _122
REMARK   54  A    between atoms: _131  and  _133
REMARK   55  A    between atoms: _133  and  _134
REMARK   56  A    between atoms: _136  and  _138
REMARK   57  A    between atoms: _138  and  _139
REMARK   58  A    between atoms: _138  and  _141
REMARK   59  A    between atoms: _141  and  _142
REMARK   60  A    between atoms: _142  and  _143
REMARK   61  A    between atoms: _143  and  _144
REMARK   62  A    between atoms: _153  and  _155
REMARK   63  A    between atoms: _155  and  _156
REMARK   64  A    between atoms: _155  and  _158
REMARK   65  A    between atoms: _158  and  _159
REMARK   66  A    between atoms: _164  and  _166
REMARK   67  A    between atoms: _166  and  _167
REMARK   68  A    between atoms: _169  and  _171
REMARK   69  A    between atoms: _171  and  _172
REMARK   70  A    between atoms: _171  and  _174
REMARK   71  A    between atoms: _174  and  _175
REMARK   72  A    between atoms: _175  and  _176
REMARK   73  A    between atoms: _176  and  _177
REMARK   74  A    between atoms: _186  and  _188
REMARK   75  A    between atoms: _188  and  _189
REMARK   76  A    between atoms: _191  and  _193
REMARK   77  A    between atoms: _193  and  _194
REMARK   78  A    between atoms: _193  and  _196
REMARK   79  A    between atoms: _196  and  _197
REMARK   80  A    between atoms: _207  and  _209
REMARK   81  A    between atoms: _209  and  _210
REMARK   82  A    between atoms: _213  and  _215
REMARK   83  A    between atoms: _215  and  _216
REMARK   84  A    between atoms: _219  and  _221
REMARK   85  A    between atoms: _221  and  _222
REMARK   86  A    between atoms: _221  and  _224
REMARK   87  A    between atoms: _224  and  _225
REMARK   88  A    between atoms: _228  and  _230
REMARK   89  A    between atoms: _230  and  _231
REMARK   90  A    between atoms: _230  and  _233
REMARK   91  A    between atoms: _233  and  _234
REMARK   92  A    between atoms: _234  and  _235
REMARK   93  A    between atoms: _240  and  _242
REMARK   94  A    between atoms: _242  and  _243
REMARK   95  A    between atoms: _242  and  _245
REMARK   96  A    between atoms: _245  and  _246
REMARK   97  A    between atoms: _249  and  _251
REMARK   98  A    between atoms: _251  and  _252
REMARK   99  A    between atoms: _251  and  _254
REMARK  100  A    between atoms: _254  and  _255
REMARK  101  A    between atoms: _258  and  _260
REMARK  102  A    between atoms: _260  and  _261
REMARK  103  A    between atoms: _260  and  _263
REMARK  104  A    between atoms: _263  and  _264
REMARK  105  A    between atoms: _267  and  _269
REMARK  106  A    between atoms: _269  and  _270
REMARK  107  A    between atoms: _269  and  _272
REMARK  108  A    between atoms: _272  and  _273
REMARK  109  A    between atoms: _275  and  _277
REMARK  110  A    between atoms: _277  and  _278
REMARK  111  A    between atoms: _277  and  _280
REMARK  112  A    between atoms: _283  and  _285
REMARK  113  A    between atoms: _285  and  _286
REMARK  114  A    between atoms: _285  and  _288
REMARK  115  A    between atoms: _288  and  _289
REMARK  116  A    between atoms: _289  and  _290
REMARK  117  A    between atoms: _290  and  _291
REMARK  118  A    between atoms: _291  and  _292
REMARK  119  A    between atoms: _297  and  _298
REMARK  120  A    between atoms: _303  and  _305
REMARK  121  A    between atoms: _305  and  _306
REMARK  122  A    between atoms: _305  and  _308
REMARK  123  A    between atoms: _308  and  _309
REMARK  124  A    between atoms: _314  and  _316
REMARK  125  A    between atoms: _316  and  _317
REMARK  126  A    between atoms: _316  and  _319
REMARK  127  A    between atoms: _319  and  _320
REMARK  128  A    between atoms: _323  and  _325
REMARK  129  A    between atoms: _325  and  _326
REMARK  130  A    between atoms: _325  and  _328
REMARK  131  A    between atoms: _331  and  _333
REMARK  132  A    between atoms: _333  and  _334
REMARK  133  A    between atoms: _336  and  _338
REMARK  134  A    between atoms: _338  and  _339
REMARK  135  A    between atoms: _338  and  _341
REMARK  136  A    between atoms: _341  and  _342
REMARK  137  A    between atoms: _342  and  _343
REMARK  138  A    between atoms: _343  and  _344
REMARK  139  A    between atoms: _344  and  _345
REMARK  140  A    between atoms: _349  and  _351
REMARK  141  A    between atoms: _351  and  _352
REMARK  142  A    between atoms: _351  and  _354
REMARK  143  A    between atoms: _354  and  _355
REMARK  144  A    between atoms: _358  and  _360
REMARK  145  A    between atoms: _360  and  _361
REMARK  146  A    between atoms: _364  and  _366
REMARK  147  A    between atoms: _366  and  _367
REMARK  148  A    between atoms: _369  and  _371
REMARK  149  A    between atoms: _371  and  _372
REMARK  150  A    between atoms: _371  and  _374
REMARK  151  A    between atoms: _374  and  _375
REMARK  152  A    between atoms: _378  and  _380
REMARK  153  A    between atoms: _380  and  _381
REMARK  154  A    between atoms: _380  and  _383
REMARK  155  A    between atoms: _383  and  _384
REMARK  156  A    between atoms: _387  and  _389
REMARK  157  A    between atoms: _389  and  _390
REMARK  158  A    between atoms: _393  and  _395
REMARK  159  A    between atoms: _395  and  _396
REMARK  160  A    between atoms: _395  and  _398
REMARK  161  A    between atoms: _398  and  _399
REMARK  162  A    between atoms: _399  and  _400
REMARK  163  A    between atoms: _403  and  _405
REMARK  164  A    between atoms: _405  and  _406
REMARK  165  A    between atoms: _405  and  _408
REMARK  166  A    between atoms: _411  and  _413
REMARK  167  A    between atoms: _413  and  _414
REMARK  168  A    between atoms: _413  and  _416
REMARK  169  A    between atoms: _416  and  _417
REMARK  170  A    between atoms: _420  and  _422
REMARK  171  A    between atoms: _422  and  _423
REMARK  172  A    between atoms: _425  and  _427
REMARK  173  A    between atoms: _427  and  _428
REMARK  174  A    between atoms: _427  and  _430
REMARK  175  A    between atoms: _433  and  _435
REMARK  176  A    between atoms: _435  and  _436
REMARK  177  A    between atoms: _438  and  _440
REMARK  178  A    between atoms: _440  and  _441
REMARK  179  A    between atoms: _440  and  _443
REMARK  180  A    between atoms: _443  and  _444
REMARK  181  A    between atoms: _447  and  _449
REMARK  182  A    between atoms: _449  and  _450
REMARK  183  A    between atoms: _449  and  _452
REMARK  184  A    between atoms: _452  and  _453
REMARK  185  A    between atoms: _458  and  _460
REMARK  186  A    between atoms: _460  and  _461
REMARK  187  A    between atoms: _460  and  _463
REMARK  188  A    between atoms: _466  and  _468
REMARK  189  A    between atoms: _468  and  _469
REMARK  190  A    between atoms: _468  and  _471
REMARK  191  A    between atoms: _471  and  _472
REMARK  192  A    between atoms: _472  and  _473
REMARK  193  A    between atoms: _478  and  _480
REMARK  194  A    between atoms: _480  and  _481
REMARK  195  A    between atoms: _485  and  _486
REMARK  196  A    between atoms: _491  and  _493
REMARK  197  A    between atoms: _493  and  _494
REMARK  198  A    between atoms: _493  and  _496
REMARK  199  A    between atoms: _496  and  _497
REMARK  200  A    between atoms: _497  and  _498
REMARK  201  A    between atoms: _501  and  _503
REMARK  202  A    between atoms: _503  and  _504
REMARK  203  A    between atoms: _503  and  _506
REMARK  204  A    between atoms: _509  and  _511
REMARK  205  A    between atoms: _511  and  _512
REMARK  206  A    between atoms: _511  and  _514
REMARK  207  A    between atoms: _514  and  _515
REMARK  208  A    between atoms: _519  and  _520
REMARK  209  A    between atoms: _525  and  _527
REMARK  210  A    between atoms: _527  and  _528
REMARK  211  A    between atoms: _527  and  _530
REMARK  212  A    between atoms: _530  and  _531
REMARK  213  A    between atoms: _534  and  _536
REMARK  214  A    between atoms: _536  and  _537
REMARK  215  A    between atoms: _540  and  _542
REMARK  216  A    between atoms: _542  and  _543
REMARK  217  A    between atoms: _542  and  _545
REMARK  218  A    between atoms: _545  and  _546
REMARK  219  A    between atoms: _549  and  _551
REMARK  220  A    between atoms: _551  and  _552
REMARK  221  A    between atoms: _551  and  _554
REMARK  222  A    between atoms: _554  and  _555
REMARK  223  A    between atoms: _557  and  _559
REMARK  224  A    between atoms: _559  and  _560
REMARK  225  A    between atoms: _562  and  _564
REMARK  226  A    between atoms: _564  and  _565
REMARK  227  A    between atoms: _564  and  _567
REMARK  228  A    between atoms: _567  and  _568
REMARK  229  A    between atoms: _571  and  _573
REMARK  230  A    between atoms: _573  and  _574
REMARK  231  A    between atoms: _573  and  _576
REMARK                            x       y       z     vdW  Elec       q    Type
REMARK                         _______ _______ _______ _____ _____    ______ ____
ROOT
ATOM      1  CA  ASP A   2      -6.460  -4.244  -1.285  0.00  0.00    +0.160 C 
ENDROOT
BRANCH   1   4
ATOM      2  C   GLY A   1      -5.674  -6.416  -2.047  0.00  0.00    +0.240 C 
ATOM      3  O   GLY A   1      -6.333  -7.013  -1.197  0.00  0.00    -0.274 OA
ATOM      4  N   ASP A   2      -5.650  -5.092  -2.147  0.00  0.00    -0.297 N 
ATOM      5  H   ASP A   2      -5.036  -4.649  -2.860  0.00  0.00    +0.150 HD
BRANCH   2   6
ATOM      6  CA  GLY A   1      -4.827  -7.173  -3.049  0.00  0.00    +0.169 C 
BRANCH   6   7
ATOM      7  N   GLY A   1      -4.688  -8.580  -2.725  0.00  0.00    -0.236 NA
ATOM      8  H   GLY A   1      -4.985  -8.920  -1.788  0.00  0.00    +0.142 HD
ENDBRANCH   6   7
ENDBRANCH   2   6
ENDBRANCH   1   4
BRANCH   1   9
ATOM      9  C   ASP A   2      -7.695  -3.770  -2.036  0.00  0.00    +0.241 C 
ATOM     10  N   VAL A   3      -8.863  -4.038  -1.466  0.00  0.00    -0.298 N 
ATOM     11  H   VAL A   3      -8.877  -4.497  -0.533  0.00  0.00    +0.150 HD
ATOM     12  O   ASP A   2      -7.590  -3.177  -3.110  0.00  0.00    -0.273 OA
BRANCH  10  13
ATOM     13  CA  VAL A   3     -10.125  -3.707  -2.111  0.00  0.00    +0.137 C 
BRANCH  13  14
ATOM     14  CB  VAL A   3     -11.159  -4.838  -1.922  0.00  0.00    +0.026 C 
ATOM     15  CG2 VAL A   3     -12.530  -4.402  -2.416  0.00  0.00    +0.002 C 
ATOM     16  CG1 VAL A   3     -10.702  -6.098  -2.641  0.00  0.00    +0.002 C 
ENDBRANCH  13  14
BRANCH  13  17
ATOM     17  C   VAL A   3     -10.711  -2.405  -1.580  0.00  0.00    +0.227 C 
ATOM     18  O   VAL A   3     -10.791  -2.191  -0.371  0.00  0.00    -0.286 OA
ENDBRANCH  13  17
ENDBRANCH  10  13
ENDBRANCH   1   9
BRANCH   1  19
ATOM     19  CB  ASP A   2      -5.650  -3.050  -0.785  0.00  0.00    +0.143 C 
BRANCH  19  20
ATOM     20  CG  ASP A   2      -4.406  -3.469  -0.034  0.00  0.00    +0.367 C 
ATOM     21  OD2 ASP A   2      -4.477  -4.445   0.744  0.00  0.00    -0.246 OA
ATOM     22  OD1 ASP A   2      -3.353  -2.826  -0.226  0.00  0.00    -0.246 OA
ENDBRANCH  19  20
ENDBRANCH   1  19
TORSDOF 9
REMARK  Name = ../refined-set-2016/4xu0/4xu0_pocket.pdb
REMARK  231 active torsions:
REMARK  status: ('A' for Active; 'I' for Inactive)
REMARK    1  A    between atoms: _1  and  _3
REMARK    2  A    between atoms: _3  and  _4
REMARK    3  A    between atoms: _3  and  _6
REMARK    4  A    between atoms: _6  and  _7
REMARK    5  A    between atoms: _10  and  _12
REMARK    6  A    between atoms: _12  and  _13
REMARK    7  A    between atoms: _15  and  _17
REMARK    8  A    between atoms: _17  and  _18
REMARK    9  A    between atoms: _17  and  _20
REMARK   10  A    between atoms: _20  and  _21
REMARK   11  A    between atoms: _23  and  _25
REMARK   12  A    between atoms: _25  and  _26
REMARK   13  A    between atoms: _25  and  _28
REMARK   14  A    between atoms: _28  and  _29
REMARK   15  A    between atoms: _32  and  _34
REMARK   16  A    between atoms: _34  and  _35
REMARK   17  A    between atoms: _34  and  _37
REMARK   18  A    between atoms: _37  and  _38
REMARK   19  A    between atoms: _43  and  _45
REMARK   20  A    between atoms: _45  and  _46
REMARK   21  A    between atoms: _49  and  _51
REMARK   22  A    between atoms: _51  and  _52
REMARK   23  A    between atoms: _51  and  _54
REMARK   24  A    between atoms: _54  and  _55
REMARK   25  A    between atoms: _58  and  _60
REMARK   26  A    between atoms: _60  and  _61
REMARK   27  A    between atoms: _60  and  _63
REMARK   28  A    between atoms: _63  and  _64
REMARK   29  A    between atoms: _67  and  _69
REMARK   30  A    between atoms: _69  and  _70
REMARK   31  A    between atoms: _69  and  _72
REMARK   32  A    between atoms: _72  and  _73
REMARK   33  A    between atoms: _76  and  _78
REMARK   34  A    between atoms: _78  and  _79
REMARK   35  A    between atoms: _82  and  _84
REMARK   36  A    between atoms: _84  and  _85
REMARK   37  A    between atoms: _84  and  _87
REMARK   38  A    between atoms: _87  and  _88
REMARK   39  A    between atoms: _88  and  _89
REMARK   40  A    between atoms: _94  and  _96
REMARK   41  A    between atoms: _96  and  _97
REMARK   42  A    between atoms: _96  and  _99
REMARK   43  A    between atoms: _99  and  _100
REMARK   44  A    between atoms: _103  and  _105
REMARK   45  A    between atoms: _105  and  _106
REMARK   46  A    between atoms: _109  and  _111
REMARK   47  A    between atoms: _111  and  _112
REMARK   48  A    between atoms: _114  and  _116
REMARK   49  A    between atoms: _116  and  _117
REMARK   50  A    between atoms: _116  and  _119
REMARK   51  A    between atoms: _119  and  _120
REMARK   52  A    between atoms: _120  and  _121
REMARK   53  A    between atoms: _121  and  _122
REMARK   54  A    between atoms: _131  and  _133
REMARK   55  A    between atoms: _133  and  _134
REMARK   56  A    between atoms: _136  and  _138
REMARK   57  A    between atoms: _138  and  _139
REMARK   58  A    between atoms: _138  and  _141
REMARK   59  A    between atoms: _141  and  _142
REMARK   60  A    between atoms: _142  and  _143
REMARK   61  A    between atoms: _143  and  _144
REMARK   62  A    between atoms: _153  and  _155
REMARK   63  A    between atoms: _155  and  _156
REMARK   64  A    between atoms: _155  and  _158
REMARK   65  A    between atoms: _158  and  _159
REMARK   66  A    between atoms: _164  and  _166
REMARK   67  A    between atoms: _166  and  _167
REMARK   68  A    between atoms: _169  and  _171
REMARK   69  A    between atoms: _171  and  _172
REMARK   70  A    between atoms: _171  and  _174
REMARK   71  A    between atoms: _174  and  _175
REMARK   72  A    between atoms: _175  and  _176
REMARK   73  A    between atoms: _176  and  _177
REMARK   74  A    between atoms: _186  and  _188
REMARK   75  A    between atoms: _188  and  _189
REMARK   76  A    between atoms: _191  and  _193
REMARK   77  A    between atoms: _193  and  _194
REMARK   78  A    between atoms: _193  and  _196
REMARK   79  A    between atoms: _196  and  _197
REMARK   80  A    between atoms: _207  and  _209
REMARK   81  A    between atoms: _209  and  _210
REMARK   82  A    between atoms: _213  and  _215
REMARK   83  A    between atoms: _215  and  _216
REMARK   84  A    between atoms: _219  and  _221
REMARK   85  A    between atoms: _221  and  _222
REMARK   86  A    between atoms: _221  and  _224
REMARK   87  A    between atoms: _224  and  _225
REMARK   88  A    between atoms: _228  and  _230
REMARK   89  A    between atoms: _230  and  _231
REMARK   90  A    between atoms: _230  and  _233
REMARK   91  A    between atoms: _233  and  _234
REMARK   92  A    between atoms: _234  and  _235
REMARK   93  A    between atoms: _240  and  _242
REMARK   94  A    between atoms: _242  and  _243
REMARK   95  A    between atoms: _242  and  _245
REMARK   96  A    between atoms: _245  and  _246
REMARK   97  A    between atoms: _249  and  _251
REMARK   98  A    between atoms: _251  and  _252
REMARK   99  A    between atoms: _251  and  _254
REMARK  100  A    between atoms: _254  and  _255
REMARK  101  A    between atoms: _258  and  _260
REMARK  102  A    between atoms: _260  and  _261
REMARK  103  A    between atoms: _260  and  _263
REMARK  104  A    between atoms: _263  and  _264
REMARK  105  A    between atoms: _267  and  _269
REMARK  106  A    between atoms: _269  and  _270
REMARK  107  A    between atoms: _269  and  _272
REMARK  108  A    between atoms: _272  and  _273
REMARK  109  A    between atoms: _275  and  _277
REMARK  110  A    between atoms: _277  and  _278
REMARK  111  A    between atoms: _277  and  _280
REMARK  112  A    between atoms: _283  and  _285
REMARK  113  A    between atoms: _285  and  _286
REMARK  114  A    between atoms: _285  and  _288
REMARK  115  A    between atoms: _288  and  _289
REMARK  116  A    between atoms: _289  and  _290
REMARK  117  A    between atoms: _290  and  _291
REMARK  118  A    between atoms: _291  and  _292
REMARK  119  A    between atoms: _297  and  _298
REMARK  120  A    between atoms: _303  and  _305
REMARK  121  A    between atoms: _305  and  _306
REMARK  122  A    between atoms: _305  and  _308
REMARK  123  A    between atoms: _308  and  _309
REMARK  124  A    between atoms: _314  and  _316
REMARK  125  A    between atoms: _316  and  _317
REMARK  126  A    between atoms: _316  and  _319
REMARK  127  A    between atoms: _319  and  _320
REMARK  128  A    between atoms: _323  and  _325
REMARK  129  A    between atoms: _325  and  _326
REMARK  130  A    between atoms: _325  and  _328
REMARK  131  A    between atoms: _331  and  _333
REMARK  132  A    between atoms: _333  and  _334
REMARK  133  A    between atoms: _336  and  _338
REMARK  134  A    between atoms: _338  and  _339
REMARK  135  A    between atoms: _338  and  _341
REMARK  136  A    between atoms: _341  and  _342
REMARK  137  A    between atoms: _342  and  _343
REMARK  138  A    between atoms: _343  and  _344
REMARK  139  A    between atoms: _344  and  _345
REMARK  140  A    between atoms: _349  and  _351
REMARK  141  A    between atoms: _351  and  _352
REMARK  142  A    between atoms: _351  and  _354
REMARK  143  A    between atoms: _354  and  _355
REMARK  144  A    between atoms: _358  and  _360
REMARK  145  A    between atoms: _360  and  _361
REMARK  146  A    between atoms: _364  and  _366
REMARK  147  A    between atoms: _366  and  _367
REMARK  148  A    between atoms: _369  and  _371
REMARK  149  A    between atoms: _371  and  _372
REMARK  150  A    between atoms: _371  and  _374
REMARK  151  A    between atoms: _374  and  _375
REMARK  152  A    between atoms: _378  and  _380
REMARK  153  A    between atoms: _380  and  _381
REMARK  154  A    between atoms: _380  and  _383
REMARK  155  A    between atoms: _383  and  _384
REMARK  156  A    between atoms: _387  and  _389
REMARK  157  A    between atoms: _389  and  _390
REMARK  158  A    between atoms: _393  and  _395
REMARK  159  A    between atoms: _395  and  _396
REMARK  160  A    between atoms: _395  and  _398
REMARK  161  A    between atoms: _398  and  _399
REMARK  162  A    between atoms: _399  and  _400
REMARK  163  A    between atoms: _403  and  _405
REMARK  164  A    between atoms: _405  and  _406
REMARK  165  A    between atoms: _405  and  _408
REMARK  166  A    between atoms: _411  and  _413
REMARK  167  A    between atoms: _413  and  _414
REMARK  168  A    between atoms: _413  and  _416
REMARK  169  A    between atoms: _416  and  _417
REMARK  170  A    between atoms: _420  and  _422
REMARK  171  A    between atoms: _422  and  _423
REMARK  172  A    between atoms: _425  and  _427
REMARK  173  A    between atoms: _427  and  _428
REMARK  174  A    between atoms: _427  and  _430
REMARK  175  A    between atoms: _433  and  _435
REMARK  176  A    between atoms: _435  and  _436
REMARK  177  A    between atoms: _438  and  _440
REMARK  178  A    between atoms: _440  and  _441
REMARK  179  A    between atoms: _440  and  _443
REMARK  180  A    between atoms: _443  and  _444
REMARK  181  A    between atoms: _447  and  _449
REMARK  182  A    between atoms: _449  and  _450
REMARK  183  A    between atoms: _449  and  _452
REMARK  184  A    between atoms: _452  and  _453
REMARK  185  A    between atoms: _458  and  _460
REMARK  186  A    between atoms: _460  and  _461
REMARK  187  A    between atoms: _460  and  _463
REMARK  188  A    between atoms: _466  and  _468
REMARK  189  A    between atoms: _468  and  _469
REMARK  190  A    between atoms: _468  and  _471
REMARK  191  A    between atoms: _471  and  _472
REMARK  192  A    between atoms: _472  and  _473
REMARK  193  A    between atoms: _478  and  _480
REMARK  194  A    between atoms: _480  and  _481
REMARK  195  A    between atoms: _485  and  _486
REMARK  196  A    between atoms: _491  and  _493
REMARK  197  A    between atoms: _493  and  _494
REMARK  198  A    between atoms: _493  and  _496
REMARK  199  A    between atoms: _496  and  _497
REMARK  200  A    between atoms: _497  and  _498
REMARK  201  A    between atoms: _501  and  _503
REMARK  202  A    between atoms: _503  and  _504
REMARK  203  A    between atoms: _503  and  _506
REMARK  204  A    between atoms: _509  and  _511
REMARK  205  A    between atoms: _511  and  _512
REMARK  206  A    between atoms: _511  and  _514
REMARK  207  A    between atoms: _514  and  _515
REMARK  208  A    between atoms: _519  and  _520
REMARK  209  A    between atoms: _525  and  _527
REMARK  210  A    between atoms: _527  and  _528
REMARK  211  A    between atoms: _527  and  _530
REMARK  212  A    between atoms: _530  and  _531
REMARK  213  A    between atoms: _534  and  _536
REMARK  214  A    between atoms: _536  and  _537
REMARK  215  A    between atoms: _540  and  _542
REMARK  216  A    between atoms: _542  and  _543
REMARK  217  A    between atoms: _542  and  _545
REMARK  218  A    between atoms: _545  and  _546
REMARK  219  A    between atoms: _549  and  _551
REMARK  220  A    between atoms: _551  and  _552
REMARK  221  A    between atoms: _551  and  _554
REMARK  222  A    between atoms: _554  and  _555
REMARK  223  A    between atoms: _557  and  _559
REMARK  224  A    between atoms: _559  and  _560
REMARK  225  A    between atoms: _562  and  _564
REMARK  226  A    between atoms: _564  and  _565
REMARK  227  A    between atoms: _564  and  _567
REMARK  228  A    between atoms: _567  and  _568
REMARK  229  A    between atoms: _571  and  _573
REMARK  230  A    between atoms: _573  and  _574
REMARK  231  A    between atoms: _573  and  _576
REMARK                            x       y       z     vdW  Elec       q    Type
REMARK                         _______ _______ _______ _____ _____    ______ ____
ROOT
ATOM      1  O   HOH     1       6.888 -10.456  19.455  0.00  0.00    +0.000 OA
ENDROOT
TORSDOF 0
REMARK  Name = ../refined-set-2016/4xu0/4xu0_pocket.pdb
REMARK  231 active torsions:
REMARK  status: ('A' for Active; 'I' for Inactive)
REMARK    1  A    between atoms: _1  and  _3
REMARK    2  A    between atoms: _3  and  _4
REMARK    3  A    between atoms: _3  and  _6
REMARK    4  A    between atoms: _6  and  _7
REMARK    5  A    between atoms: _10  and  _12
REMARK    6  A    between atoms: _12  and  _13
REMARK    7  A    between atoms: _15  and  _17
REMARK    8  A    between atoms: _17  and  _18
REMARK    9  A    between atoms: _17  and  _20
REMARK   10  A    between atoms: _20  and  _21
REMARK   11  A    between atoms: _23  and  _25
REMARK   12  A    between atoms: _25  and  _26
REMARK   13  A    between atoms: _25  and  _28
REMARK   14  A    between atoms: _28  and  _29
REMARK   15  A    between atoms: _32  and  _34
REMARK   16  A    between atoms: _34  and  _35
REMARK   17  A    between atoms: _34  and  _37
REMARK   18  A    between atoms: _37  and  _38
REMARK   19  A    between atoms: _43  and  _45
REMARK   20  A    between atoms: _45  and  _46
REMARK   21  A    between atoms: _49  and  _51
REMARK   22  A    between atoms: _51  and  _52
REMARK   23  A    between atoms: _51  and  _54
REMARK   24  A    between atoms: _54  and  _55
REMARK   25  A    between atoms: _58  and  _60
REMARK   26  A    between atoms: _60  and  _61
REMARK   27  A    between atoms: _60  and  _63
REMARK   28  A    between atoms: _63  and  _64
REMARK   29  A    between atoms: _67  and  _69
REMARK   30  A    between atoms: _69  and  _70
REMARK   31  A    between atoms: _69  and  _72
REMARK   32  A    between atoms: _72  and  _73
REMARK   33  A    between atoms: _76  and  _78
REMARK   34  A    between atoms: _78  and  _79
REMARK   35  A    between atoms: _82  and  _84
REMARK   36  A    between atoms: _84  and  _85
REMARK   37  A    between atoms: _84  and  _87
REMARK   38  A    between atoms: _87  and  _88
REMARK   39  A    between atoms: _88  and  _89
REMARK   40  A    between atoms: _94  and  _96
REMARK   41  A    between atoms: _96  and  _97
REMARK   42  A    between atoms: _96  and  _99
REMARK   43  A    between atoms: _99  and  _100
REMARK   44  A    between atoms: _103  and  _105
REMARK   45  A    between atoms: _105  and  _106
REMARK   46  A    between atoms: _109  and  _111
REMARK   47  A    between atoms: _111  and  _112
REMARK   48  A    between atoms: _114  and  _116
REMARK   49  A    between atoms: _116  and  _117
REMARK   50  A    between atoms: _116  and  _119
REMARK   51  A    between atoms: _119  and  _120
REMARK   52  A    between atoms: _120  and  _121
REMARK   53  A    between atoms: _121  and  _122
REMARK   54  A    between atoms: _131  and  _133
REMARK   55  A    between atoms: _133  and  _134
REMARK   56  A    between atoms: _136  and  _138
REMARK   57  A    between atoms: _138  and  _139
REMARK   58  A    between atoms: _138  and  _141
REMARK   59  A    between atoms: _141  and  _142
REMARK   60  A    between atoms: _142  and  _143
REMARK   61  A    between atoms: _143  and  _144
REMARK   62  A    between atoms: _153  and  _155
REMARK   63  A    between atoms: _155  and  _156
REMARK   64  A    between atoms: _155  and  _158
REMARK   65  A    between atoms: _158  and  _159
REMARK   66  A    between atoms: _164  and  _166
REMARK   67  A    between atoms: _166  and  _167
REMARK   68  A    between atoms: _169  and  _171
REMARK   69  A    between atoms: _171  and  _172
REMARK   70  A    between atoms: _171  and  _174
REMARK   71  A    between atoms: _174  and  _175
REMARK   72  A    between atoms: _175  and  _176
REMARK   73  A    between atoms: _176  and  _177
REMARK   74  A    between atoms: _186  and  _188
REMARK   75  A    between atoms: _188  and  _189
REMARK   76  A    between atoms: _191  and  _193
REMARK   77  A    between atoms: _193  and  _194
REMARK   78  A    between atoms: _193  and  _196
REMARK   79  A    between atoms: _196  and  _197
REMARK   80  A    between atoms: _207  and  _209
REMARK   81  A    between atoms: _209  and  _210
REMARK   82  A    between atoms: _213  and  _215
REMARK   83  A    between atoms: _215  and  _216
REMARK   84  A    between atoms: _219  and  _221
REMARK   85  A    between atoms: _221  and  _222
REMARK   86  A    between atoms: _221  and  _224
REMARK   87  A    between atoms: _224  and  _225
REMARK   88  A    between atoms: _228  and  _230
REMARK   89  A    between atoms: _230  and  _231
REMARK   90  A    between atoms: _230  and  _233
REMARK   91  A    between atoms: _233  and  _234
REMARK   92  A    between atoms: _234  and  _235
REMARK   93  A    between atoms: _240  and  _242
REMARK   94  A    between atoms: _242  and  _243
REMARK   95  A    between atoms: _242  and  _245
REMARK   96  A    between atoms: _245  and  _246
REMARK   97  A    between atoms: _249  and  _251
REMARK   98  A    between atoms: _251  and  _252
REMARK   99  A    between atoms: _251  and  _254
REMARK  100  A    between atoms: _254  and  _255
REMARK  101  A    between atoms: _258  and  _260
REMARK  102  A    between atoms: _260  and  _261
REMARK  103  A    between atoms: _260  and  _263
REMARK  104  A    between atoms: _263  and  _264
REMARK  105  A    between atoms: _267  and  _269
REMARK  106  A    between atoms: _269  and  _270
REMARK  107  A    between atoms: _269  and  _272
REMARK  108  A    between atoms: _272  and  _273
REMARK  109  A    between atoms: _275  and  _277
REMARK  110  A    between atoms: _277  and  _278
REMARK  111  A    between atoms: _277  and  _280
REMARK  112  A    between atoms: _283  and  _285
REMARK  113  A    between atoms: _285  and  _286
REMARK  114  A    between atoms: _285  and  _288
REMARK  115  A    between atoms: _288  and  _289
REMARK  116  A    between atoms: _289  and  _290
REMARK  117  A    between atoms: _290  and  _291
REMARK  118  A    between atoms: _291  and  _292
REMARK  119  A    between atoms: _297  and  _298
REMARK  120  A    between atoms: _303  and  _305
REMARK  121  A    between atoms: _305  and  _306
REMARK  122  A    between atoms: _305  and  _308
REMARK  123  A    between atoms: _308  and  _309
REMARK  124  A    between atoms: _314  and  _316
REMARK  125  A    between atoms: _316  and  _317
REMARK  126  A    between atoms: _316  and  _319
REMARK  127  A    between atoms: _319  and  _320
REMARK  128  A    between atoms: _323  and  _325
REMARK  129  A    between atoms: _325  and  _326
REMARK  130  A    between atoms: _325  and  _328
REMARK  131  A    between atoms: _331  and  _333
REMARK  132  A    between atoms: _333  and  _334
REMARK  133  A    between atoms: _336  and  _338
REMARK  134  A    between atoms: _338  and  _339
REMARK  135  A    between atoms: _338  and  _341
REMARK  136  A    between atoms: _341  and  _342
REMARK  137  A    between atoms: _342  and  _343
REMARK  138  A    between atoms: _343  and  _344
REMARK  139  A    between atoms: _344  and  _345
REMARK  140  A    between atoms: _349  and  _351
REMARK  141  A    between atoms: _351  and  _352
REMARK  142  A    between atoms: _351  and  _354
REMARK  143  A    between atoms: _354  and  _355
REMARK  144  A    between atoms: _358  and  _360
REMARK  145  A    between atoms: _360  and  _361
REMARK  146  A    between atoms: _364  and  _366
REMARK  147  A    between atoms: _366  and  _367
REMARK  148  A    between atoms: _369  and  _371
REMARK  149  A    between atoms: _371  and  _372
REMARK  150  A    between atoms: _371  and  _374
REMARK  151  A    between atoms: _374  and  _375
REMARK  152  A    between atoms: _378  and  _380
REMARK  153  A    between atoms: _380  and  _381
REMARK  154  A    between atoms: _380  and  _383
REMARK  155  A    between atoms: _383  and  _384
REMARK  156  A    between atoms: _387  and  _389
REMARK  157  A    between atoms: _389  and  _390
REMARK  158  A    between atoms: _393  and  _395
REMARK  159  A    between atoms: _395  and  _396
REMARK  160  A    between atoms: _395  and  _398
REMARK  161  A    between atoms: _398  and  _399
REMARK  162  A    between atoms: _399  and  _400
REMARK  163  A    between atoms: _403  and  _405
REMARK  164  A    between atoms: _405  and  _406
REMARK  165  A    between atoms: _405  and  _408
REMARK  166  A    between atoms: _411  and  _413
REMARK  167  A    between atoms: _413  and  _414
REMARK  168  A    between atoms: _413  and  _416
REMARK  169  A    between atoms: _416  and  _417
REMARK  170  A    between atoms: _420  and  _422
REMARK  171  A    between atoms: _422  and  _423
REMARK  172  A    between atoms: _425  and  _427
REMARK  173  A    between atoms: _427  and  _428
REMARK  174  A    between atoms: _427  and  _430
REMARK  175  A    between atoms: _433  and  _435
REMARK  176  A    between atoms: _435  and  _436
REMARK  177  A    between atoms: _438  and  _440
REMARK  178  A    between atoms: _440  and  _441
REMARK  179  A    between atoms: _440  and  _443
REMARK  180  A    between atoms: _443  and  _444
REMARK  181  A    between atoms: _447  and  _449
REMARK  182  A    between atoms: _449  and  _450
REMARK  183  A    between atoms: _449  and  _452
REMARK  184  A    between atoms: _452  and  _453
REMARK  185  A    between atoms: _458  and  _460
REMARK  186  A    between atoms: _460  and  _461
REMARK  187  A    between atoms: _460  and  _463
REMARK  188  A    between atoms: _466  and  _468
REMARK  189  A    between atoms: _468  and  _469
REMARK  190  A    between atoms: _468  and  _471
REMARK  191  A    between atoms: _471  and  _472
REMARK  192  A    between atoms: _472  and  _473
REMARK  193  A    between atoms: _478  and  _480
REMARK  194  A    between atoms: _480  and  _481
REMARK  195  A    between atoms: _485  and  _486
REMARK  196  A    between atoms: _491  and  _493
REMARK  197  A    between atoms: _493  and  _494
REMARK  198  A    between atoms: _493  and  _496
REMARK  199  A    between atoms: _496  and  _497
REMARK  200  A    between atoms: _497  and  _498
REMARK  201  A    between atoms: _501  and  _503
REMARK  202  A    between atoms: _503  and  _504
REMARK  203  A    between atoms: _503  and  _506
REMARK  204  A    between atoms: _509  and  _511
REMARK  205  A    between atoms: _511  and  _512
REMARK  206  A    between atoms: _511  and  _514
REMARK  207  A    between atoms: _514  and  _515
REMARK  208  A    between atoms: _519  and  _520
REMARK  209  A    between atoms: _525  and  _527
REMARK  210  A    between atoms: _527  and  _528
REMARK  211  A    between atoms: _527  and  _530
REMARK  212  A    between atoms: _530  and  _531
REMARK  213  A    between atoms: _534  and  _536
REMARK  214  A    between atoms: _536  and  _537
REMARK  215  A    between atoms: _540  and  _542
REMARK  216  A    between atoms: _542  and  _543
REMARK  217  A    between atoms: _542  and  _545
REMARK  218  A    between atoms: _545  and  _546
REMARK  219  A    between atoms: _549  and  _551
REMARK  220  A    between atoms: _551  and  _552
REMARK  221  A    between atoms: _551  and  _554
REMARK  222  A    between atoms: _554  and  _555
REMARK  223  A    between atoms: _557  and  _559
REMARK  224  A    between atoms: _559  and  _560
REMARK  225  A    between atoms: _562  and  _564
REMARK  226  A    between atoms: _564  and  _565
REMARK  227  A    between atoms: _564  and  _567
REMARK  228  A    between atoms: _567  and  _568
REMARK  229  A    between atoms: _571  and  _573
REMARK  230  A    between atoms: _573  and  _574
REMARK  231  A    between atoms: _573  and  _576
REMARK                            x       y       z     vdW  Elec       q    Type
REMARK                         _______ _______ _______ _____ _____    ______ ____
ROOT
ATOM      1  O   HOH     1      -8.528   0.962   8.873  0.00  0.00    +0.000 OA
ENDROOT
TORSDOF 0
REMARK  Name = ../refined-set-2016/4xu0/4xu0_pocket.pdb
REMARK  231 active torsions:
REMARK  status: ('A' for Active; 'I' for Inactive)
REMARK    1  A    between atoms: _1  and  _3
REMARK    2  A    between atoms: _3  and  _4
REMARK    3  A    between atoms: _3  and  _6
REMARK    4  A    between atoms: _6  and  _7
REMARK    5  A    between atoms: _10  and  _12
REMARK    6  A    between atoms: _12  and  _13
REMARK    7  A    between atoms: _15  and  _17
REMARK    8  A    between atoms: _17  and  _18
REMARK    9  A    between atoms: _17  and  _20
REMARK   10  A    between atoms: _20  and  _21
REMARK   11  A    between atoms: _23  and  _25
REMARK   12  A    between atoms: _25  and  _26
REMARK   13  A    between atoms: _25  and  _28
REMARK   14  A    between atoms: _28  and  _29
REMARK   15  A    between atoms: _32  and  _34
REMARK   16  A    between atoms: _34  and  _35
REMARK   17  A    between atoms: _34  and  _37
REMARK   18  A    between atoms: _37  and  _38
REMARK   19  A    between atoms: _43  and  _45
REMARK   20  A    between atoms: _45  and  _46
REMARK   21  A    between atoms: _49  and  _51
REMARK   22  A    between atoms: _51  and  _52
REMARK   23  A    between atoms: _51  and  _54
REMARK   24  A    between atoms: _54  and  _55
REMARK   25  A    between atoms: _58  and  _60
REMARK   26  A    between atoms: _60  and  _61
REMARK   27  A    between atoms: _60  and  _63
REMARK   28  A    between atoms: _63  and  _64
REMARK   29  A    between atoms: _67  and  _69
REMARK   30  A    between atoms: _69  and  _70
REMARK   31  A    between atoms: _69  and  _72
REMARK   32  A    between atoms: _72  and  _73
REMARK   33  A    between atoms: _76  and  _78
REMARK   34  A    between atoms: _78  and  _79
REMARK   35  A    between atoms: _82  and  _84
REMARK   36  A    between atoms: _84  and  _85
REMARK   37  A    between atoms: _84  and  _87
REMARK   38  A    between atoms: _87  and  _88
REMARK   39  A    between atoms: _88  and  _89
REMARK   40  A    between atoms: _94  and  _96
REMARK   41  A    between atoms: _96  and  _97
REMARK   42  A    between atoms: _96  and  _99
REMARK   43  A    between atoms: _99  and  _100
REMARK   44  A    between atoms: _103  and  _105
REMARK   45  A    between atoms: _105  and  _106
REMARK   46  A    between atoms: _109  and  _111
REMARK   47  A    between atoms: _111  and  _112
REMARK   48  A    between atoms: _114  and  _116
REMARK   49  A    between atoms: _116  and  _117
REMARK   50  A    between atoms: _116  and  _119
REMARK   51  A    between atoms: _119  and  _120
REMARK   52  A    between atoms: _120  and  _121
REMARK   53  A    between atoms: _121  and  _122
REMARK   54  A    between atoms: _131  and  _133
REMARK   55  A    between atoms: _133  and  _134
REMARK   56  A    between atoms: _136  and  _138
REMARK   57  A    between atoms: _138  and  _139
REMARK   58  A    between atoms: _138  and  _141
REMARK   59  A    between atoms: _141  and  _142
REMARK   60  A    between atoms: _142  and  _143
REMARK   61  A    between atoms: _143  and  _144
REMARK   62  A    between atoms: _153  and  _155
REMARK   63  A    between atoms: _155  and  _156
REMARK   64  A    between atoms: _155  and  _158
REMARK   65  A    between atoms: _158  and  _159
REMARK   66  A    between atoms: _164  and  _166
REMARK   67  A    between atoms: _166  and  _167
REMARK   68  A    between atoms: _169  and  _171
REMARK   69  A    between atoms: _171  and  _172
REMARK   70  A    between atoms: _171  and  _174
REMARK   71  A    between atoms: _174  and  _175
REMARK   72  A    between atoms: _175  and  _176
REMARK   73  A    between atoms: _176  and  _177
REMARK   74  A    between atoms: _186  and  _188
REMARK   75  A    between atoms: _188  and  _189
REMARK   76  A    between atoms: _191  and  _193
REMARK   77  A    between atoms: _193  and  _194
REMARK   78  A    between atoms: _193  and  _196
REMARK   79  A    between atoms: _196  and  _197
REMARK   80  A    between atoms: _207  and  _209
REMARK   81  A    between atoms: _209  and  _210
REMARK   82  A    between atoms: _213  and  _215
REMARK   83  A    between atoms: _215  and  _216
REMARK   84  A    between atoms: _219  and  _221
REMARK   85  A    between atoms: _221  and  _222
REMARK   86  A    between atoms: _221  and  _224
REMARK   87  A    between atoms: _224  and  _225
REMARK   88  A    between atoms: _228  and  _230
REMARK   89  A    between atoms: _230  and  _231
REMARK   90  A    between atoms: _230  and  _233
REMARK   91  A    between atoms: _233  and  _234
REMARK   92  A    between atoms: _234  and  _235
REMARK   93  A    between atoms: _240  and  _242
REMARK   94  A    between atoms: _242  and  _243
REMARK   95  A    between atoms: _242  and  _245
REMARK   96  A    between atoms: _245  and  _246
REMARK   97  A    between atoms: _249  and  _251
REMARK   98  A    between atoms: _251  and  _252
REMARK   99  A    between atoms: _251  and  _254
REMARK  100  A    between atoms: _254  and  _255
REMARK  101  A    between atoms: _258  and  _260
REMARK  102  A    between atoms: _260  and  _261
REMARK  103  A    between atoms: _260  and  _263
REMARK  104  A    between atoms: _263  and  _264
REMARK  105  A    between atoms: _267  and  _269
REMARK  106  A    between atoms: _269  and  _270
REMARK  107  A    between atoms: _269  and  _272
REMARK  108  A    between atoms: _272  and  _273
REMARK  109  A    between atoms: _275  and  _277
REMARK  110  A    between atoms: _277  and  _278
REMARK  111  A    between atoms: _277  and  _280
REMARK  112  A    between atoms: _283  and  _285
REMARK  113  A    between atoms: _285  and  _286
REMARK  114  A    between atoms: _285  and  _288
REMARK  115  A    between atoms: _288  and  _289
REMARK  116  A    between atoms: _289  and  _290
REMARK  117  A    between atoms: _290  and  _291
REMARK  118  A    between atoms: _291  and  _292
REMARK  119  A    between atoms: _297  and  _298
REMARK  120  A    between atoms: _303  and  _305
REMARK  121  A    between atoms: _305  and  _306
REMARK  122  A    between atoms: _305  and  _308
REMARK  123  A    between atoms: _308  and  _309
REMARK  124  A    between atoms: _314  and  _316
REMARK  125  A    between atoms: _316  and  _317
REMARK  126  A    between atoms: _316  and  _319
REMARK  127  A    between atoms: _319  and  _320
REMARK  128  A    between atoms: _323  and  _325
REMARK  129  A    between atoms: _325  and  _326
REMARK  130  A    between atoms: _325  and  _328
REMARK  131  A    between atoms: _331  and  _333
REMARK  132  A    between atoms: _333  and  _334
REMARK  133  A    between atoms: _336  and  _338
REMARK  134  A    between atoms: _338  and  _339
REMARK  135  A    between atoms: _338  and  _341
REMARK  136  A    between atoms: _341  and  _342
REMARK  137  A    between atoms: _342  and  _343
REMARK  138  A    between atoms: _343  and  _344
REMARK  139  A    between atoms: _344  and  _345
REMARK  140  A    between atoms: _349  and  _351
REMARK  141  A    between atoms: _351  and  _352
REMARK  142  A    between atoms: _351  and  _354
REMARK  143  A    between atoms: _354  and  _355
REMARK  144  A    between atoms: _358  and  _360
REMARK  145  A    between atoms: _360  and  _361
REMARK  146  A    between atoms: _364  and  _366
REMARK  147  A    between atoms: _366  and  _367
REMARK  148  A    between atoms: _369  and  _371
REMARK  149  A    between atoms: _371  and  _372
REMARK  150  A    between atoms: _371  and  _374
REMARK  151  A    between atoms: _374  and  _375
REMARK  152  A    between atoms: _378  and  _380
REMARK  153  A    between atoms: _380  and  _381
REMARK  154  A    between atoms: _380  and  _383
REMARK  155  A    between atoms: _383  and  _384
REMARK  156  A    between atoms: _387  and  _389
REMARK  157  A    between atoms: _389  and  _390
REMARK  158  A    between atoms: _393  and  _395
REMARK  159  A    between atoms: _395  and  _396
REMARK  160  A    between atoms: _395  and  _398
REMARK  161  A    between atoms: _398  and  _399
REMARK  162  A    between atoms: _399  and  _400
REMARK  163  A    between atoms: _403  and  _405
REMARK  164  A    between atoms: _405  and  _406
REMARK  165  A    between atoms: _405  and  _408
REMARK  166  A    between atoms: _411  and  _413
REMARK  167  A    between atoms: _413  and  _414
REMARK  168  A    between atoms: _413  and  _416
REMARK  169  A    between atoms: _416  and  _417
REMARK  170  A    between atoms: _420  and  _422
REMARK  171  A    between atoms: _422  and  _423
REMARK  172  A    between atoms: _425  and  _427
REMARK  173  A    between atoms: _427  and  _428
REMARK  174  A    between atoms: _427  and  _430
REMARK  175  A    between atoms: _433  and  _435
REMARK  176  A    between atoms: _435  and  _436
REMARK  177  A    between atoms: _438  and  _440
REMARK  178  A    between atoms: _440  and  _441
REMARK  179  A    between atoms: _440  and  _443
REMARK  180  A    between atoms: _443  and  _444
REMARK  181  A    between atoms: _447  and  _449
REMARK  182  A    between atoms: _449  and  _450
REMARK  183  A    between atoms: _449  and  _452
REMARK  184  A    between atoms: _452  and  _453
REMARK  185  A    between atoms: _458  and  _460
REMARK  186  A    between atoms: _460  and  _461
REMARK  187  A    between atoms: _460  and  _463
REMARK  188  A    between atoms: _466  and  _468
REMARK  189  A    between atoms: _468  and  _469
REMARK  190  A    between atoms: _468  and  _471
REMARK  191  A    between atoms: _471  and  _472
REMARK  192  A    between atoms: _472  and  _473
REMARK  193  A    between atoms: _478  and  _480
REMARK  194  A    between atoms: _480  and  _481
REMARK  195  A    between atoms: _485  and  _486
REMARK  196  A    between atoms: _491  and  _493
REMARK  197  A    between atoms: _493  and  _494
REMARK  198  A    between atoms: _493  and  _496
REMARK  199  A    between atoms: _496  and  _497
REMARK  200  A    between atoms: _497  and  _498
REMARK  201  A    between atoms: _501  and  _503
REMARK  202  A    between atoms: _503  and  _504
REMARK  203  A    between atoms: _503  and  _506
REMARK  204  A    between atoms: _509  and  _511
REMARK  205  A    between atoms: _511  and  _512
REMARK  206  A    between atoms: _511  and  _514
REMARK  207  A    between atoms: _514  and  _515
REMARK  208  A    between atoms: _519  and  _520
REMARK  209  A    between atoms: _525  and  _527
REMARK  210  A    between atoms: _527  and  _528
REMARK  211  A    between atoms: _527  and  _530
REMARK  212  A    between atoms: _530  and  _531
REMARK  213  A    between atoms: _534  and  _536
REMARK  214  A    between atoms: _536  and  _537
REMARK  215  A    between atoms: _540  and  _542
REMARK  216  A    between atoms: _542  and  _543
REMARK  217  A    between atoms: _542  and  _545
REMARK  218  A    between atoms: _545  and  _546
REMARK  219  A    between atoms: _549  and  _551
REMARK  220  A    between atoms: _551  and  _552
REMARK  221  A    between atoms: _551  and  _554
REMARK  222  A    between atoms: _554  and  _555
REMARK  223  A    between atoms: _557  and  _559
REMARK  224  A    between atoms: _559  and  _560
REMARK  225  A    between atoms: _562  and  _564
REMARK  226  A    between atoms: _564  and  _565
REMARK  227  A    between atoms: _564  and  _567
REMARK  228  A    between atoms: _567  and  _568
REMARK  229  A    between atoms: _571  and  _573
REMARK  230  A    between atoms: _573  and  _574
REMARK  231  A    between atoms: _573  and  _576
REMARK                            x       y       z     vdW  Elec       q    Type
REMARK                         _______ _______ _______ _____ _____    ______ ____
ROOT
ATOM      1  O   HOH     1      -9.071  -5.520   0.867  0.00  0.00    +0.000 OA
ENDROOT
TORSDOF 0
REMARK  Name = ../refined-set-2016/4xu0/4xu0_pocket.pdb
REMARK  231 active torsions:
REMARK  status: ('A' for Active; 'I' for Inactive)
REMARK    1  A    between atoms: _1  and  _3
REMARK    2  A    between atoms: _3  and  _4
REMARK    3  A    between atoms: _3  and  _6
REMARK    4  A    between atoms: _6  and  _7
REMARK    5  A    between atoms: _10  and  _12
REMARK    6  A    between atoms: _12  and  _13
REMARK    7  A    between atoms: _15  and  _17
REMARK    8  A    between atoms: _17  and  _18
REMARK    9  A    between atoms: _17  and  _20
REMARK   10  A    between atoms: _20  and  _21
REMARK   11  A    between atoms: _23  and  _25
REMARK   12  A    between atoms: _25  and  _26
REMARK   13  A    between atoms: _25  and  _28
REMARK   14  A    between atoms: _28  and  _29
REMARK   15  A    between atoms: _32  and  _34
REMARK   16  A    between atoms: _34  and  _35
REMARK   17  A    between atoms: _34  and  _37
REMARK   18  A    between atoms: _37  and  _38
REMARK   19  A    between atoms: _43  and  _45
REMARK   20  A    between atoms: _45  and  _46
REMARK   21  A    between atoms: _49  and  _51
REMARK   22  A    between atoms: _51  and  _52
REMARK   23  A    between atoms: _51  and  _54
REMARK   24  A    between atoms: _54  and  _55
REMARK   25  A    between atoms: _58  and  _60
REMARK   26  A    between atoms: _60  and  _61
REMARK   27  A    between atoms: _60  and  _63
REMARK   28  A    between atoms: _63  and  _64
REMARK   29  A    between atoms: _67  and  _69
REMARK   30  A    between atoms: _69  and  _70
REMARK   31  A    between atoms: _69  and  _72
REMARK   32  A    between atoms: _72  and  _73
REMARK   33  A    between atoms: _76  and  _78
REMARK   34  A    between atoms: _78  and  _79
REMARK   35  A    between atoms: _82  and  _84
REMARK   36  A    between atoms: _84  and  _85
REMARK   37  A    between atoms: _84  and  _87
REMARK   38  A    between atoms: _87  and  _88
REMARK   39  A    between atoms: _88  and  _89
REMARK   40  A    between atoms: _94  and  _96
REMARK   41  A    between atoms: _96  and  _97
REMARK   42  A    between atoms: _96  and  _99
REMARK   43  A    between atoms: _99  and  _100
REMARK   44  A    between atoms: _103  and  _105
REMARK   45  A    between atoms: _105  and  _106
REMARK   46  A    between atoms: _109  and  _111
REMARK   47  A    between atoms: _111  and  _112
REMARK   48  A    between atoms: _114  and  _116
REMARK   49  A    between atoms: _116  and  _117
REMARK   50  A    between atoms: _116  and  _119
REMARK   51  A    between atoms: _119  and  _120
REMARK   52  A    between atoms: _120  and  _121
REMARK   53  A    between atoms: _121  and  _122
REMARK   54  A    between atoms: _131  and  _133
REMARK   55  A    between atoms: _133  and  _134
REMARK   56  A    between atoms: _136  and  _138
REMARK   57  A    between atoms: _138  and  _139
REMARK   58  A    between atoms: _138  and  _141
REMARK   59  A    between atoms: _141  and  _142
REMARK   60  A    between atoms: _142  and  _143
REMARK   61  A    between atoms: _143  and  _144
REMARK   62  A    between atoms: _153  and  _155
REMARK   63  A    between atoms: _155  and  _156
REMARK   64  A    between atoms: _155  and  _158
REMARK   65  A    between atoms: _158  and  _159
REMARK   66  A    between atoms: _164  and  _166
REMARK   67  A    between atoms: _166  and  _167
REMARK   68  A    between atoms: _169  and  _171
REMARK   69  A    between atoms: _171  and  _172
REMARK   70  A    between atoms: _171  and  _174
REMARK   71  A    between atoms: _174  and  _175
REMARK   72  A    between atoms: _175  and  _176
REMARK   73  A    between atoms: _176  and  _177
REMARK   74  A    between atoms: _186  and  _188
REMARK   75  A    between atoms: _188  and  _189
REMARK   76  A    between atoms: _191  and  _193
REMARK   77  A    between atoms: _193  and  _194
REMARK   78  A    between atoms: _193  and  _196
REMARK   79  A    between atoms: _196  and  _197
REMARK   80  A    between atoms: _207  and  _209
REMARK   81  A    between atoms: _209  and  _210
REMARK   82  A    between atoms: _213  and  _215
REMARK   83  A    between atoms: _215  and  _216
REMARK   84  A    between atoms: _219  and  _221
REMARK   85  A    between atoms: _221  and  _222
REMARK   86  A    between atoms: _221  and  _224
REMARK   87  A    between atoms: _224  and  _225
REMARK   88  A    between atoms: _228  and  _230
REMARK   89  A    between atoms: _230  and  _231
REMARK   90  A    between atoms: _230  and  _233
REMARK   91  A    between atoms: _233  and  _234
REMARK   92  A    between atoms: _234  and  _235
REMARK   93  A    between atoms: _240  and  _242
REMARK   94  A    between atoms: _242  and  _243
REMARK   95  A    between atoms: _242  and  _245
REMARK   96  A    between atoms: _245  and  _246
REMARK   97  A    between atoms: _249  and  _251
REMARK   98  A    between atoms: _251  and  _252
REMARK   99  A    between atoms: _251  and  _254
REMARK  100  A    between atoms: _254  and  _255
REMARK  101  A    between atoms: _258  and  _260
REMARK  102  A    between atoms: _260  and  _261
REMARK  103  A    between atoms: _260  and  _263
REMARK  104  A    between atoms: _263  and  _264
REMARK  105  A    between atoms: _267  and  _269
REMARK  106  A    between atoms: _269  and  _270
REMARK  107  A    between atoms: _269  and  _272
REMARK  108  A    between atoms: _272  and  _273
REMARK  109  A    between atoms: _275  and  _277
REMARK  110  A    between atoms: _277  and  _278
REMARK  111  A    between atoms: _277  and  _280
REMARK  112  A    between atoms: _283  and  _285
REMARK  113  A    between atoms: _285  and  _286
REMARK  114  A    between atoms: _285  and  _288
REMARK  115  A    between atoms: _288  and  _289
REMARK  116  A    between atoms: _289  and  _290
REMARK  117  A    between atoms: _290  and  _291
REMARK  118  A    between atoms: _291  and  _292
REMARK  119  A    between atoms: _297  and  _298
REMARK  120  A    between atoms: _303  and  _305
REMARK  121  A    between atoms: _305  and  _306
REMARK  122  A    between atoms: _305  and  _308
REMARK  123  A    between atoms: _308  and  _309
REMARK  124  A    between atoms: _314  and  _316
REMARK  125  A    between atoms: _316  and  _317
REMARK  126  A    between atoms: _316  and  _319
REMARK  127  A    between atoms: _319  and  _320
REMARK  128  A    between atoms: _323  and  _325
REMARK  129  A    between atoms: _325  and  _326
REMARK  130  A    between atoms: _325  and  _328
REMARK  131  A    between atoms: _331  and  _333
REMARK  132  A    between atoms: _333  and  _334
REMARK  133  A    between atoms: _336  and  _338
REMARK  134  A    between atoms: _338  and  _339
REMARK  135  A    between atoms: _338  and  _341
REMARK  136  A    between atoms: _341  and  _342
REMARK  137  A    between atoms: _342  and  _343
REMARK  138  A    between atoms: _343  and  _344
REMARK  139  A    between atoms: _344  and  _345
REMARK  140  A    between atoms: _349  and  _351
REMARK  141  A    between atoms: _351  and  _352
REMARK  142  A    between atoms: _351  and  _354
REMARK  143  A    between atoms: _354  and  _355
REMARK  144  A    between atoms: _358  and  _360
REMARK  145  A    between atoms: _360  and  _361
REMARK  146  A    between atoms: _364  and  _366
REMARK  147  A    between atoms: _366  and  _367
REMARK  148  A    between atoms: _369  and  _371
REMARK  149  A    between atoms: _371  and  _372
REMARK  150  A    between atoms: _371  and  _374
REMARK  151  A    between atoms: _374  and  _375
REMARK  152  A    between atoms: _378  and  _380
REMARK  153  A    between atoms: _380  and  _381
REMARK  154  A    between atoms: _380  and  _383
REMARK  155  A    between atoms: _383  and  _384
REMARK  156  A    between atoms: _387  and  _389
REMARK  157  A    between atoms: _389  and  _390
REMARK  158  A    between atoms: _393  and  _395
REMARK  159  A    between atoms: _395  and  _396
REMARK  160  A    between atoms: _395  and  _398
REMARK  161  A    between atoms: _398  and  _399
REMARK  162  A    between atoms: _399  and  _400
REMARK  163  A    between atoms: _403  and  _405
REMARK  164  A    between atoms: _405  and  _406
REMARK  165  A    between atoms: _405  and  _408
REMARK  166  A    between atoms: _411  and  _413
REMARK  167  A    between atoms: _413  and  _414
REMARK  168  A    between atoms: _413  and  _416
REMARK  169  A    between atoms: _416  and  _417
REMARK  170  A    between atoms: _420  and  _422
REMARK  171  A    between atoms: _422  and  _423
REMARK  172  A    between atoms: _425  and  _427
REMARK  173  A    between atoms: _427  and  _428
REMARK  174  A    between atoms: _427  and  _430
REMARK  175  A    between atoms: _433  and  _435
REMARK  176  A    between atoms: _435  and  _436
REMARK  177  A    between atoms: _438  and  _440
REMARK  178  A    between atoms: _440  and  _441
REMARK  179  A    between atoms: _440  and  _443
REMARK  180  A    between atoms: _443  and  _444
REMARK  181  A    between atoms: _447  and  _449
REMARK  182  A    between atoms: _449  and  _450
REMARK  183  A    between atoms: _449  and  _452
REMARK  184  A    between atoms: _452  and  _453
REMARK  185  A    between atoms: _458  and  _460
REMARK  186  A    between atoms: _460  and  _461
REMARK  187  A    between atoms: _460  and  _463
REMARK  188  A    between atoms: _466  and  _468
REMARK  189  A    between atoms: _468  and  _469
REMARK  190  A    between atoms: _468  and  _471
REMARK  191  A    between atoms: _471  and  _472
REMARK  192  A    between atoms: _472  and  _473
REMARK  193  A    between atoms: _478  and  _480
REMARK  194  A    between atoms: _480  and  _481
REMARK  195  A    between atoms: _485  and  _486
REMARK  196  A    between atoms: _491  and  _493
REMARK  197  A    between atoms: _493  and  _494
REMARK  198  A    between atoms: _493  and  _496
REMARK  199  A    between atoms: _496  and  _497
REMARK  200  A    between atoms: _497  and  _498
REMARK  201  A    between atoms: _501  and  _503
REMARK  202  A    between atoms: _503  and  _504
REMARK  203  A    between atoms: _503  and  _506
REMARK  204  A    between atoms: _509  and  _511
REMARK  205  A    between atoms: _511  and  _512
REMARK  206  A    between atoms: _511  and  _514
REMARK  207  A    between atoms: _514  and  _515
REMARK  208  A    between atoms: _519  and  _520
REMARK  209  A    between atoms: _525  and  _527
REMARK  210  A    between atoms: _527  and  _528
REMARK  211  A    between atoms: _527  and  _530
REMARK  212  A    between atoms: _530  and  _531
REMARK  213  A    between atoms: _534  and  _536
REMARK  214  A    between atoms: _536  and  _537
REMARK  215  A    between atoms: _540  and  _542
REMARK  216  A    between atoms: _542  and  _543
REMARK  217  A    between atoms: _542  and  _545
REMARK  218  A    between atoms: _545  and  _546
REMARK  219  A    between atoms: _549  and  _551
REMARK  220  A    between atoms: _551  and  _552
REMARK  221  A    between atoms: _551  and  _554
REMARK  222  A    between atoms: _554  and  _555
REMARK  223  A    between atoms: _557  and  _559
REMARK  224  A    between atoms: _559  and  _560
REMARK  225  A    between atoms: _562  and  _564
REMARK  226  A    between atoms: _564  and  _565
REMARK  227  A    between atoms: _564  and  _567
REMARK  228  A    between atoms: _567  and  _568
REMARK  229  A    between atoms: _571  and  _573
REMARK  230  A    between atoms: _573  and  _574
REMARK  231  A    between atoms: _573  and  _576
REMARK                            x       y       z     vdW  Elec       q    Type
REMARK                         _______ _______ _______ _____ _____    ______ ____
ROOT
ATOM      1  O   HOH     1      -0.498  -4.040  17.458  0.00  0.00    +0.000 OA
ENDROOT
TORSDOF 0
REMARK  Name = ../refined-set-2016/4xu0/4xu0_pocket.pdb
REMARK  231 active torsions:
REMARK  status: ('A' for Active; 'I' for Inactive)
REMARK    1  A    between atoms: _1  and  _3
REMARK    2  A    between atoms: _3  and  _4
REMARK    3  A    between atoms: _3  and  _6
REMARK    4  A    between atoms: _6  and  _7
REMARK    5  A    between atoms: _10  and  _12
REMARK    6  A    between atoms: _12  and  _13
REMARK    7  A    between atoms: _15  and  _17
REMARK    8  A    between atoms: _17  and  _18
REMARK    9  A    between atoms: _17  and  _20
REMARK   10  A    between atoms: _20  and  _21
REMARK   11  A    between atoms: _23  and  _25
REMARK   12  A    between atoms: _25  and  _26
REMARK   13  A    between atoms: _25  and  _28
REMARK   14  A    between atoms: _28  and  _29
REMARK   15  A    between atoms: _32  and  _34
REMARK   16  A    between atoms: _34  and  _35
REMARK   17  A    between atoms: _34  and  _37
REMARK   18  A    between atoms: _37  and  _38
REMARK   19  A    between atoms: _43  and  _45
REMARK   20  A    between atoms: _45  and  _46
REMARK   21  A    between atoms: _49  and  _51
REMARK   22  A    between atoms: _51  and  _52
REMARK   23  A    between atoms: _51  and  _54
REMARK   24  A    between atoms: _54  and  _55
REMARK   25  A    between atoms: _58  and  _60
REMARK   26  A    between atoms: _60  and  _61
REMARK   27  A    between atoms: _60  and  _63
REMARK   28  A    between atoms: _63  and  _64
REMARK   29  A    between atoms: _67  and  _69
REMARK   30  A    between atoms: _69  and  _70
REMARK   31  A    between atoms: _69  and  _72
REMARK   32  A    between atoms: _72  and  _73
REMARK   33  A    between atoms: _76  and  _78
REMARK   34  A    between atoms: _78  and  _79
REMARK   35  A    between atoms: _82  and  _84
REMARK   36  A    between atoms: _84  and  _85
REMARK   37  A    between atoms: _84  and  _87
REMARK   38  A    between atoms: _87  and  _88
REMARK   39  A    between atoms: _88  and  _89
REMARK   40  A    between atoms: _94  and  _96
REMARK   41  A    between atoms: _96  and  _97
REMARK   42  A    between atoms: _96  and  _99
REMARK   43  A    between atoms: _99  and  _100
REMARK   44  A    between atoms: _103  and  _105
REMARK   45  A    between atoms: _105  and  _106
REMARK   46  A    between atoms: _109  and  _111
REMARK   47  A    between atoms: _111  and  _112
REMARK   48  A    between atoms: _114  and  _116
REMARK   49  A    between atoms: _116  and  _117
REMARK   50  A    between atoms: _116  and  _119
REMARK   51  A    between atoms: _119  and  _120
REMARK   52  A    between atoms: _120  and  _121
REMARK   53  A    between atoms: _121  and  _122
REMARK   54  A    between atoms: _131  and  _133
REMARK   55  A    between atoms: _133  and  _134
REMARK   56  A    between atoms: _136  and  _138
REMARK   57  A    between atoms: _138  and  _139
REMARK   58  A    between atoms: _138  and  _141
REMARK   59  A    between atoms: _141  and  _142
REMARK   60  A    between atoms: _142  and  _143
REMARK   61  A    between atoms: _143  and  _144
REMARK   62  A    between atoms: _153  and  _155
REMARK   63  A    between atoms: _155  and  _156
REMARK   64  A    between atoms: _155  and  _158
REMARK   65  A    between atoms: _158  and  _159
REMARK   66  A    between atoms: _164  and  _166
REMARK   67  A    between atoms: _166  and  _167
REMARK   68  A    between atoms: _169  and  _171
REMARK   69  A    between atoms: _171  and  _172
REMARK   70  A    between atoms: _171  and  _174
REMARK   71  A    between atoms: _174  and  _175
REMARK   72  A    between atoms: _175  and  _176
REMARK   73  A    between atoms: _176  and  _177
REMARK   74  A    between atoms: _186  and  _188
REMARK   75  A    between atoms: _188  and  _189
REMARK   76  A    between atoms: _191  and  _193
REMARK   77  A    between atoms: _193  and  _194
REMARK   78  A    between atoms: _193  and  _196
REMARK   79  A    between atoms: _196  and  _197
REMARK   80  A    between atoms: _207  and  _209
REMARK   81  A    between atoms: _209  and  _210
REMARK   82  A    between atoms: _213  and  _215
REMARK   83  A    between atoms: _215  and  _216
REMARK   84  A    between atoms: _219  and  _221
REMARK   85  A    between atoms: _221  and  _222
REMARK   86  A    between atoms: _221  and  _224
REMARK   87  A    between atoms: _224  and  _225
REMARK   88  A    between atoms: _228  and  _230
REMARK   89  A    between atoms: _230  and  _231
REMARK   90  A    between atoms: _230  and  _233
REMARK   91  A    between atoms: _233  and  _234
REMARK   92  A    between atoms: _234  and  _235
REMARK   93  A    between atoms: _240  and  _242
REMARK   94  A    between atoms: _242  and  _243
REMARK   95  A    between atoms: _242  and  _245
REMARK   96  A    between atoms: _245  and  _246
REMARK   97  A    between atoms: _249  and  _251
REMARK   98  A    between atoms: _251  and  _252
REMARK   99  A    between atoms: _251  and  _254
REMARK  100  A    between atoms: _254  and  _255
REMARK  101  A    between atoms: _258  and  _260
REMARK  102  A    between atoms: _260  and  _261
REMARK  103  A    between atoms: _260  and  _263
REMARK  104  A    between atoms: _263  and  _264
REMARK  105  A    between atoms: _267  and  _269
REMARK  106  A    between atoms: _269  and  _270
REMARK  107  A    between atoms: _269  and  _272
REMARK  108  A    between atoms: _272  and  _273
REMARK  109  A    between atoms: _275  and  _277
REMARK  110  A    between atoms: _277  and  _278
REMARK  111  A    between atoms: _277  and  _280
REMARK  112  A    between atoms: _283  and  _285
REMARK  113  A    between atoms: _285  and  _286
REMARK  114  A    between atoms: _285  and  _288
REMARK  115  A    between atoms: _288  and  _289
REMARK  116  A    between atoms: _289  and  _290
REMARK  117  A    between atoms: _290  and  _291
REMARK  118  A    between atoms: _291  and  _292
REMARK  119  A    between atoms: _297  and  _298
REMARK  120  A    between atoms: _303  and  _305
REMARK  121  A    between atoms: _305  and  _306
REMARK  122  A    between atoms: _305  and  _308
REMARK  123  A    between atoms: _308  and  _309
REMARK  124  A    between atoms: _314  and  _316
REMARK  125  A    between atoms: _316  and  _317
REMARK  126  A    between atoms: _316  and  _319
REMARK  127  A    between atoms: _319  and  _320
REMARK  128  A    between atoms: _323  and  _325
REMARK  129  A    between atoms: _325  and  _326
REMARK  130  A    between atoms: _325  and  _328
REMARK  131  A    between atoms: _331  and  _333
REMARK  132  A    between atoms: _333  and  _334
REMARK  133  A    between atoms: _336  and  _338
REMARK  134  A    between atoms: _338  and  _339
REMARK  135  A    between atoms: _338  and  _341
REMARK  136  A    between atoms: _341  and  _342
REMARK  137  A    between atoms: _342  and  _343
REMARK  138  A    between atoms: _343  and  _344
REMARK  139  A    between atoms: _344  and  _345
REMARK  140  A    between atoms: _349  and  _351
REMARK  141  A    between atoms: _351  and  _352
REMARK  142  A    between atoms: _351  and  _354
REMARK  143  A    between atoms: _354  and  _355
REMARK  144  A    between atoms: _358  and  _360
REMARK  145  A    between atoms: _360  and  _361
REMARK  146  A    between atoms: _364  and  _366
REMARK  147  A    between atoms: _366  and  _367
REMARK  148  A    between atoms: _369  and  _371
REMARK  149  A    between atoms: _371  and  _372
REMARK  150  A    between atoms: _371  and  _374
REMARK  151  A    between atoms: _374  and  _375
REMARK  152  A    between atoms: _378  and  _380
REMARK  153  A    between atoms: _380  and  _381
REMARK  154  A    between atoms: _380  and  _383
REMARK  155  A    between atoms: _383  and  _384
REMARK  156  A    between atoms: _387  and  _389
REMARK  157  A    between atoms: _389  and  _390
REMARK  158  A    between atoms: _393  and  _395
REMARK  159  A    between atoms: _395  and  _396
REMARK  160  A    between atoms: _395  and  _398
REMARK  161  A    between atoms: _398  and  _399
REMARK  162  A    between atoms: _399  and  _400
REMARK  163  A    between atoms: _403  and  _405
REMARK  164  A    between atoms: _405  and  _406
REMARK  165  A    between atoms: _405  and  _408
REMARK  166  A    between atoms: _411  and  _413
REMARK  167  A    between atoms: _413  and  _414
REMARK  168  A    between atoms: _413  and  _416
REMARK  169  A    between atoms: _416  and  _417
REMARK  170  A    between atoms: _420  and  _422
REMARK  171  A    between atoms: _422  and  _423
REMARK  172  A    between atoms: _425  and  _427
REMARK  173  A    between atoms: _427  and  _428
REMARK  174  A    between atoms: _427  and  _430
REMARK  175  A    between atoms: _433  and  _435
REMARK  176  A    between atoms: _435  and  _436
REMARK  177  A    between atoms: _438  and  _440
REMARK  178  A    between atoms: _440  and  _441
REMARK  179  A    between atoms: _440  and  _443
REMARK  180  A    between atoms: _443  and  _444
REMARK  181  A    between atoms: _447  and  _449
REMARK  182  A    between atoms: _449  and  _450
REMARK  183  A    between atoms: _449  and  _452
REMARK  184  A    between atoms: _452  and  _453
REMARK  185  A    between atoms: _458  and  _460
REMARK  186  A    between atoms: _460  and  _461
REMARK  187  A    between atoms: _460  and  _463
REMARK  188  A    between atoms: _466  and  _468
REMARK  189  A    between atoms: _468  and  _469
REMARK  190  A    between atoms: _468  and  _471
REMARK  191  A    between atoms: _471  and  _472
REMARK  192  A    between atoms: _472  and  _473
REMARK  193  A    between atoms: _478  and  _480
REMARK  194  A    between atoms: _480  and  _481
REMARK  195  A    between atoms: _485  and  _486
REMARK  196  A    between atoms: _491  and  _493
REMARK  197  A    between atoms: _493  and  _494
REMARK  198  A    between atoms: _493  and  _496
REMARK  199  A    between atoms: _496  and  _497
REMARK  200  A    between atoms: _497  and  _498
REMARK  201  A    between atoms: _501  and  _503
REMARK  202  A    between atoms: _503  and  _504
REMARK  203  A    between atoms: _503  and  _506
REMARK  204  A    between atoms: _509  and  _511
REMARK  205  A    between atoms: _511  and  _512
REMARK  206  A    between atoms: _511  and  _514
REMARK  207  A    between atoms: _514  and  _515
REMARK  208  A    between atoms: _519  and  _520
REMARK  209  A    between atoms: _525  and  _527
REMARK  210  A    between atoms: _527  and  _528
REMARK  211  A    between atoms: _527  and  _530
REMARK  212  A    between atoms: _530  and  _531
REMARK  213  A    between atoms: _534  and  _536
REMARK  214  A    between atoms: _536  and  _537
REMARK  215  A    between atoms: _540  and  _542
REMARK  216  A    between atoms: _542  and  _543
REMARK  217  A    between atoms: _542  and  _545
REMARK  218  A    between atoms: _545  and  _546
REMARK  219  A    between atoms: _549  and  _551
REMARK  220  A    between atoms: _551  and  _552
REMARK  221  A    between atoms: _551  and  _554
REMARK  222  A    between atoms: _554  and  _555
REMARK  223  A    between atoms: _557  and  _559
REMARK  224  A    between atoms: _559  and  _560
REMARK  225  A    between atoms: _562  and  _564
REMARK  226  A    between atoms: _564  and  _565
REMARK  227  A    between atoms: _564  and  _567
REMARK  228  A    between atoms: _567  and  _568
REMARK  229  A    between atoms: _571  and  _573
REMARK  230  A    between atoms: _573  and  _574
REMARK  231  A    between atoms: _573  and  _576
REMARK                            x       y       z     vdW  Elec       q    Type
REMARK                         _______ _______ _______ _____ _____    ______ ____
ROOT
ATOM      1  O   HOH     1      -1.575   3.214  12.642  0.00  0.00    +0.000 OA
ENDROOT
TORSDOF 0
REMARK  Name = ../refined-set-2016/4xu0/4xu0_pocket.pdb
REMARK  231 active torsions:
REMARK  status: ('A' for Active; 'I' for Inactive)
REMARK    1  A    between atoms: _1  and  _3
REMARK    2  A    between atoms: _3  and  _4
REMARK    3  A    between atoms: _3  and  _6
REMARK    4  A    between atoms: _6  and  _7
REMARK    5  A    between atoms: _10  and  _12
REMARK    6  A    between atoms: _12  and  _13
REMARK    7  A    between atoms: _15  and  _17
REMARK    8  A    between atoms: _17  and  _18
REMARK    9  A    between atoms: _17  and  _20
REMARK   10  A    between atoms: _20  and  _21
REMARK   11  A    between atoms: _23  and  _25
REMARK   12  A    between atoms: _25  and  _26
REMARK   13  A    between atoms: _25  and  _28
REMARK   14  A    between atoms: _28  and  _29
REMARK   15  A    between atoms: _32  and  _34
REMARK   16  A    between atoms: _34  and  _35
REMARK   17  A    between atoms: _34  and  _37
REMARK   18  A    between atoms: _37  and  _38
REMARK   19  A    between atoms: _43  and  _45
REMARK   20  A    between atoms: _45  and  _46
REMARK   21  A    between atoms: _49  and  _51
REMARK   22  A    between atoms: _51  and  _52
REMARK   23  A    between atoms: _51  and  _54
REMARK   24  A    between atoms: _54  and  _55
REMARK   25  A    between atoms: _58  and  _60
REMARK   26  A    between atoms: _60  and  _61
REMARK   27  A    between atoms: _60  and  _63
REMARK   28  A    between atoms: _63  and  _64
REMARK   29  A    between atoms: _67  and  _69
REMARK   30  A    between atoms: _69  and  _70
REMARK   31  A    between atoms: _69  and  _72
REMARK   32  A    between atoms: _72  and  _73
REMARK   33  A    between atoms: _76  and  _78
REMARK   34  A    between atoms: _78  and  _79
REMARK   35  A    between atoms: _82  and  _84
REMARK   36  A    between atoms: _84  and  _85
REMARK   37  A    between atoms: _84  and  _87
REMARK   38  A    between atoms: _87  and  _88
REMARK   39  A    between atoms: _88  and  _89
REMARK   40  A    between atoms: _94  and  _96
REMARK   41  A    between atoms: _96  and  _97
REMARK   42  A    between atoms: _96  and  _99
REMARK   43  A    between atoms: _99  and  _100
REMARK   44  A    between atoms: _103  and  _105
REMARK   45  A    between atoms: _105  and  _106
REMARK   46  A    between atoms: _109  and  _111
REMARK   47  A    between atoms: _111  and  _112
REMARK   48  A    between atoms: _114  and  _116
REMARK   49  A    between atoms: _116  and  _117
REMARK   50  A    between atoms: _116  and  _119
REMARK   51  A    between atoms: _119  and  _120
REMARK   52  A    between atoms: _120  and  _121
REMARK   53  A    between atoms: _121  and  _122
REMARK   54  A    between atoms: _131  and  _133
REMARK   55  A    between atoms: _133  and  _134
REMARK   56  A    between atoms: _136  and  _138
REMARK   57  A    between atoms: _138  and  _139
REMARK   58  A    between atoms: _138  and  _141
REMARK   59  A    between atoms: _141  and  _142
REMARK   60  A    between atoms: _142  and  _143
REMARK   61  A    between atoms: _143  and  _144
REMARK   62  A    between atoms: _153  and  _155
REMARK   63  A    between atoms: _155  and  _156
REMARK   64  A    between atoms: _155  and  _158
REMARK   65  A    between atoms: _158  and  _159
REMARK   66  A    between atoms: _164  and  _166
REMARK   67  A    between atoms: _166  and  _167
REMARK   68  A    between atoms: _169  and  _171
REMARK   69  A    between atoms: _171  and  _172
REMARK   70  A    between atoms: _171  and  _174
REMARK   71  A    between atoms: _174  and  _175
REMARK   72  A    between atoms: _175  and  _176
REMARK   73  A    between atoms: _176  and  _177
REMARK   74  A    between atoms: _186  and  _188
REMARK   75  A    between atoms: _188  and  _189
REMARK   76  A    between atoms: _191  and  _193
REMARK   77  A    between atoms: _193  and  _194
REMARK   78  A    between atoms: _193  and  _196
REMARK   79  A    between atoms: _196  and  _197
REMARK   80  A    between atoms: _207  and  _209
REMARK   81  A    between atoms: _209  and  _210
REMARK   82  A    between atoms: _213  and  _215
REMARK   83  A    between atoms: _215  and  _216
REMARK   84  A    between atoms: _219  and  _221
REMARK   85  A    between atoms: _221  and  _222
REMARK   86  A    between atoms: _221  and  _224
REMARK   87  A    between atoms: _224  and  _225
REMARK   88  A    between atoms: _228  and  _230
REMARK   89  A    between atoms: _230  and  _231
REMARK   90  A    between atoms: _230  and  _233
REMARK   91  A    between atoms: _233  and  _234
REMARK   92  A    between atoms: _234  and  _235
REMARK   93  A    between atoms: _240  and  _242
REMARK   94  A    between atoms: _242  and  _243
REMARK   95  A    between atoms: _242  and  _245
REMARK   96  A    between atoms: _245  and  _246
REMARK   97  A    between atoms: _249  and  _251
REMARK   98  A    between atoms: _251  and  _252
REMARK   99  A    between atoms: _251  and  _254
REMARK  100  A    between atoms: _254  and  _255
REMARK  101  A    between atoms: _258  and  _260
REMARK  102  A    between atoms: _260  and  _261
REMARK  103  A    between atoms: _260  and  _263
REMARK  104  A    between atoms: _263  and  _264
REMARK  105  A    between atoms: _267  and  _269
REMARK  106  A    between atoms: _269  and  _270
REMARK  107  A    between atoms: _269  and  _272
REMARK  108  A    between atoms: _272  and  _273
REMARK  109  A    between atoms: _275  and  _277
REMARK  110  A    between atoms: _277  and  _278
REMARK  111  A    between atoms: _277  and  _280
REMARK  112  A    between atoms: _283  and  _285
REMARK  113  A    between atoms: _285  and  _286
REMARK  114  A    between atoms: _285  and  _288
REMARK  115  A    between atoms: _288  and  _289
REMARK  116  A    between atoms: _289  and  _290
REMARK  117  A    between atoms: _290  and  _291
REMARK  118  A    between atoms: _291  and  _292
REMARK  119  A    between atoms: _297  and  _298
REMARK  120  A    between atoms: _303  and  _305
REMARK  121  A    between atoms: _305  and  _306
REMARK  122  A    between atoms: _305  and  _308
REMARK  123  A    between atoms: _308  and  _309
REMARK  124  A    between atoms: _314  and  _316
REMARK  125  A    between atoms: _316  and  _317
REMARK  126  A    between atoms: _316  and  _319
REMARK  127  A    between atoms: _319  and  _320
REMARK  128  A    between atoms: _323  and  _325
REMARK  129  A    between atoms: _325  and  _326
REMARK  130  A    between atoms: _325  and  _328
REMARK  131  A    between atoms: _331  and  _333
REMARK  132  A    between atoms: _333  and  _334
REMARK  133  A    between atoms: _336  and  _338
REMARK  134  A    between atoms: _338  and  _339
REMARK  135  A    between atoms: _338  and  _341
REMARK  136  A    between atoms: _341  and  _342
REMARK  137  A    between atoms: _342  and  _343
REMARK  138  A    between atoms: _343  and  _344
REMARK  139  A    between atoms: _344  and  _345
REMARK  140  A    between atoms: _349  and  _351
REMARK  141  A    between atoms: _351  and  _352
REMARK  142  A    between atoms: _351  and  _354
REMARK  143  A    between atoms: _354  and  _355
REMARK  144  A    between atoms: _358  and  _360
REMARK  145  A    between atoms: _360  and  _361
REMARK  146  A    between atoms: _364  and  _366
REMARK  147  A    between atoms: _366  and  _367
REMARK  148  A    between atoms: _369  and  _371
REMARK  149  A    between atoms: _371  and  _372
REMARK  150  A    between atoms: _371  and  _374
REMARK  151  A    between atoms: _374  and  _375
REMARK  152  A    between atoms: _378  and  _380
REMARK  153  A    between atoms: _380  and  _381
REMARK  154  A    between atoms: _380  and  _383
REMARK  155  A    between atoms: _383  and  _384
REMARK  156  A    between atoms: _387  and  _389
REMARK  157  A    between atoms: _389  and  _390
REMARK  158  A    between atoms: _393  and  _395
REMARK  159  A    between atoms: _395  and  _396
REMARK  160  A    between atoms: _395  and  _398
REMARK  161  A    between atoms: _398  and  _399
REMARK  162  A    between atoms: _399  and  _400
REMARK  163  A    between atoms: _403  and  _405
REMARK  164  A    between atoms: _405  and  _406
REMARK  165  A    between atoms: _405  and  _408
REMARK  166  A    between atoms: _411  and  _413
REMARK  167  A    between atoms: _413  and  _414
REMARK  168  A    between atoms: _413  and  _416
REMARK  169  A    between atoms: _416  and  _417
REMARK  170  A    between atoms: _420  and  _422
REMARK  171  A    between atoms: _422  and  _423
REMARK  172  A    between atoms: _425  and  _427
REMARK  173  A    between atoms: _427  and  _428
REMARK  174  A    between atoms: _427  and  _430
REMARK  175  A    between atoms: _433  and  _435
REMARK  176  A    between atoms: _435  and  _436
REMARK  177  A    between atoms: _438  and  _440
REMARK  178  A    between atoms: _440  and  _441
REMARK  179  A    between atoms: _440  and  _443
REMARK  180  A    between atoms: _443  and  _444
REMARK  181  A    between atoms: _447  and  _449
REMARK  182  A    between atoms: _449  and  _450
REMARK  183  A    between atoms: _449  and  _452
REMARK  184  A    between atoms: _452  and  _453
REMARK  185  A    between atoms: _458  and  _460
REMARK  186  A    between atoms: _460  and  _461
REMARK  187  A    between atoms: _460  and  _463
REMARK  188  A    between atoms: _466  and  _468
REMARK  189  A    between atoms: _468  and  _469
REMARK  190  A    between atoms: _468  and  _471
REMARK  191  A    between atoms: _471  and  _472
REMARK  192  A    between atoms: _472  and  _473
REMARK  193  A    between atoms: _478  and  _480
REMARK  194  A    between atoms: _480  and  _481
REMARK  195  A    between atoms: _485  and  _486
REMARK  196  A    between atoms: _491  and  _493
REMARK  197  A    between atoms: _493  and  _494
REMARK  198  A    between atoms: _493  and  _496
REMARK  199  A    between atoms: _496  and  _497
REMARK  200  A    between atoms: _497  and  _498
REMARK  201  A    between atoms: _501  and  _503
REMARK  202  A    between atoms: _503  and  _504
REMARK  203  A    between atoms: _503  and  _506
REMARK  204  A    between atoms: _509  and  _511
REMARK  205  A    between atoms: _511  and  _512
REMARK  206  A    between atoms: _511  and  _514
REMARK  207  A    between atoms: _514  and  _515
REMARK  208  A    between atoms: _519  and  _520
REMARK  209  A    between atoms: _525  and  _527
REMARK  210  A    between atoms: _527  and  _528
REMARK  211  A    between atoms: _527  and  _530
REMARK  212  A    between atoms: _530  and  _531
REMARK  213  A    between atoms: _534  and  _536
REMARK  214  A    between atoms: _536  and  _537
REMARK  215  A    between atoms: _540  and  _542
REMARK  216  A    between atoms: _542  and  _543
REMARK  217  A    between atoms: _542  and  _545
REMARK  218  A    between atoms: _545  and  _546
REMARK  219  A    between atoms: _549  and  _551
REMARK  220  A    between atoms: _551  and  _552
REMARK  221  A    between atoms: _551  and  _554
REMARK  222  A    between atoms: _554  and  _555
REMARK  223  A    between atoms: _557  and  _559
REMARK  224  A    between atoms: _559  and  _560
REMARK  225  A    between atoms: _562  and  _564
REMARK  226  A    between atoms: _564  and  _565
REMARK  227  A    between atoms: _564  and  _567
REMARK  228  A    between atoms: _567  and  _568
REMARK  229  A    between atoms: _571  and  _573
REMARK  230  A    between atoms: _573  and  _574
REMARK  231  A    between atoms: _573  and  _576
REMARK                            x       y       z     vdW  Elec       q    Type
REMARK                         _______ _______ _______ _____ _____    ______ ____
ROOT
ATOM      1  O   HOH     1       2.097  -1.765  16.558  0.00  0.00    +0.000 OA
ENDROOT
TORSDOF 0
REMARK  Name = ../refined-set-2016/4xu0/4xu0_pocket.pdb
REMARK  231 active torsions:
REMARK  status: ('A' for Active; 'I' for Inactive)
REMARK    1  A    between atoms: _1  and  _3
REMARK    2  A    between atoms: _3  and  _4
REMARK    3  A    between atoms: _3  and  _6
REMARK    4  A    between atoms: _6  and  _7
REMARK    5  A    between atoms: _10  and  _12
REMARK    6  A    between atoms: _12  and  _13
REMARK    7  A    between atoms: _15  and  _17
REMARK    8  A    between atoms: _17  and  _18
REMARK    9  A    between atoms: _17  and  _20
REMARK   10  A    between atoms: _20  and  _21
REMARK   11  A    between atoms: _23  and  _25
REMARK   12  A    between atoms: _25  and  _26
REMARK   13  A    between atoms: _25  and  _28
REMARK   14  A    between atoms: _28  and  _29
REMARK   15  A    between atoms: _32  and  _34
REMARK   16  A    between atoms: _34  and  _35
REMARK   17  A    between atoms: _34  and  _37
REMARK   18  A    between atoms: _37  and  _38
REMARK   19  A    between atoms: _43  and  _45
REMARK   20  A    between atoms: _45  and  _46
REMARK   21  A    between atoms: _49  and  _51
REMARK   22  A    between atoms: _51  and  _52
REMARK   23  A    between atoms: _51  and  _54
REMARK   24  A    between atoms: _54  and  _55
REMARK   25  A    between atoms: _58  and  _60
REMARK   26  A    between atoms: _60  and  _61
REMARK   27  A    between atoms: _60  and  _63
REMARK   28  A    between atoms: _63  and  _64
REMARK   29  A    between atoms: _67  and  _69
REMARK   30  A    between atoms: _69  and  _70
REMARK   31  A    between atoms: _69  and  _72
REMARK   32  A    between atoms: _72  and  _73
REMARK   33  A    between atoms: _76  and  _78
REMARK   34  A    between atoms: _78  and  _79
REMARK   35  A    between atoms: _82  and  _84
REMARK   36  A    between atoms: _84  and  _85
REMARK   37  A    between atoms: _84  and  _87
REMARK   38  A    between atoms: _87  and  _88
REMARK   39  A    between atoms: _88  and  _89
REMARK   40  A    between atoms: _94  and  _96
REMARK   41  A    between atoms: _96  and  _97
REMARK   42  A    between atoms: _96  and  _99
REMARK   43  A    between atoms: _99  and  _100
REMARK   44  A    between atoms: _103  and  _105
REMARK   45  A    between atoms: _105  and  _106
REMARK   46  A    between atoms: _109  and  _111
REMARK   47  A    between atoms: _111  and  _112
REMARK   48  A    between atoms: _114  and  _116
REMARK   49  A    between atoms: _116  and  _117
REMARK   50  A    between atoms: _116  and  _119
REMARK   51  A    between atoms: _119  and  _120
REMARK   52  A    between atoms: _120  and  _121
REMARK   53  A    between atoms: _121  and  _122
REMARK   54  A    between atoms: _131  and  _133
REMARK   55  A    between atoms: _133  and  _134
REMARK   56  A    between atoms: _136  and  _138
REMARK   57  A    between atoms: _138  and  _139
REMARK   58  A    between atoms: _138  and  _141
REMARK   59  A    between atoms: _141  and  _142
REMARK   60  A    between atoms: _142  and  _143
REMARK   61  A    between atoms: _143  and  _144
REMARK   62  A    between atoms: _153  and  _155
REMARK   63  A    between atoms: _155  and  _156
REMARK   64  A    between atoms: _155  and  _158
REMARK   65  A    between atoms: _158  and  _159
REMARK   66  A    between atoms: _164  and  _166
REMARK   67  A    between atoms: _166  and  _167
REMARK   68  A    between atoms: _169  and  _171
REMARK   69  A    between atoms: _171  and  _172
REMARK   70  A    between atoms: _171  and  _174
REMARK   71  A    between atoms: _174  and  _175
REMARK   72  A    between atoms: _175  and  _176
REMARK   73  A    between atoms: _176  and  _177
REMARK   74  A    between atoms: _186  and  _188
REMARK   75  A    between atoms: _188  and  _189
REMARK   76  A    between atoms: _191  and  _193
REMARK   77  A    between atoms: _193  and  _194
REMARK   78  A    between atoms: _193  and  _196
REMARK   79  A    between atoms: _196  and  _197
REMARK   80  A    between atoms: _207  and  _209
REMARK   81  A    between atoms: _209  and  _210
REMARK   82  A    between atoms: _213  and  _215
REMARK   83  A    between atoms: _215  and  _216
REMARK   84  A    between atoms: _219  and  _221
REMARK   85  A    between atoms: _221  and  _222
REMARK   86  A    between atoms: _221  and  _224
REMARK   87  A    between atoms: _224  and  _225
REMARK   88  A    between atoms: _228  and  _230
REMARK   89  A    between atoms: _230  and  _231
REMARK   90  A    between atoms: _230  and  _233
REMARK   91  A    between atoms: _233  and  _234
REMARK   92  A    between atoms: _234  and  _235
REMARK   93  A    between atoms: _240  and  _242
REMARK   94  A    between atoms: _242  and  _243
REMARK   95  A    between atoms: _242  and  _245
REMARK   96  A    between atoms: _245  and  _246
REMARK   97  A    between atoms: _249  and  _251
REMARK   98  A    between atoms: _251  and  _252
REMARK   99  A    between atoms: _251  and  _254
REMARK  100  A    between atoms: _254  and  _255
REMARK  101  A    between atoms: _258  and  _260
REMARK  102  A    between atoms: _260  and  _261
REMARK  103  A    between atoms: _260  and  _263
REMARK  104  A    between atoms: _263  and  _264
REMARK  105  A    between atoms: _267  and  _269
REMARK  106  A    between atoms: _269  and  _270
REMARK  107  A    between atoms: _269  and  _272
REMARK  108  A    between atoms: _272  and  _273
REMARK  109  A    between atoms: _275  and  _277
REMARK  110  A    between atoms: _277  and  _278
REMARK  111  A    between atoms: _277  and  _280
REMARK  112  A    between atoms: _283  and  _285
REMARK  113  A    between atoms: _285  and  _286
REMARK  114  A    between atoms: _285  and  _288
REMARK  115  A    between atoms: _288  and  _289
REMARK  116  A    between atoms: _289  and  _290
REMARK  117  A    between atoms: _290  and  _291
REMARK  118  A    between atoms: _291  and  _292
REMARK  119  A    between atoms: _297  and  _298
REMARK  120  A    between atoms: _303  and  _305
REMARK  121  A    between atoms: _305  and  _306
REMARK  122  A    between atoms: _305  and  _308
REMARK  123  A    between atoms: _308  and  _309
REMARK  124  A    between atoms: _314  and  _316
REMARK  125  A    between atoms: _316  and  _317
REMARK  126  A    between atoms: _316  and  _319
REMARK  127  A    between atoms: _319  and  _320
REMARK  128  A    between atoms: _323  and  _325
REMARK  129  A    between atoms: _325  and  _326
REMARK  130  A    between atoms: _325  and  _328
REMARK  131  A    between atoms: _331  and  _333
REMARK  132  A    between atoms: _333  and  _334
REMARK  133  A    between atoms: _336  and  _338
REMARK  134  A    between atoms: _338  and  _339
REMARK  135  A    between atoms: _338  and  _341
REMARK  136  A    between atoms: _341  and  _342
REMARK  137  A    between atoms: _342  and  _343
REMARK  138  A    between atoms: _343  and  _344
REMARK  139  A    between atoms: _344  and  _345
REMARK  140  A    between atoms: _349  and  _351
REMARK  141  A    between atoms: _351  and  _352
REMARK  142  A    between atoms: _351  and  _354
REMARK  143  A    between atoms: _354  and  _355
REMARK  144  A    between atoms: _358  and  _360
REMARK  145  A    between atoms: _360  and  _361
REMARK  146  A    between atoms: _364  and  _366
REMARK  147  A    between atoms: _366  and  _367
REMARK  148  A    between atoms: _369  and  _371
REMARK  149  A    between atoms: _371  and  _372
REMARK  150  A    between atoms: _371  and  _374
REMARK  151  A    between atoms: _374  and  _375
REMARK  152  A    between atoms: _378  and  _380
REMARK  153  A    between atoms: _380  and  _381
REMARK  154  A    between atoms: _380  and  _383
REMARK  155  A    between atoms: _383  and  _384
REMARK  156  A    between atoms: _387  and  _389
REMARK  157  A    between atoms: _389  and  _390
REMARK  158  A    between atoms: _393  and  _395
REMARK  159  A    between atoms: _395  and  _396
REMARK  160  A    between atoms: _395  and  _398
REMARK  161  A    between atoms: _398  and  _399
REMARK  162  A    between atoms: _399  and  _400
REMARK  163  A    between atoms: _403  and  _405
REMARK  164  A    between atoms: _405  and  _406
REMARK  165  A    between atoms: _405  and  _408
REMARK  166  A    between atoms: _411  and  _413
REMARK  167  A    between atoms: _413  and  _414
REMARK  168  A    between atoms: _413  and  _416
REMARK  169  A    between atoms: _416  and  _417
REMARK  170  A    between atoms: _420  and  _422
REMARK  171  A    between atoms: _422  and  _423
REMARK  172  A    between atoms: _425  and  _427
REMARK  173  A    between atoms: _427  and  _428
REMARK  174  A    between atoms: _427  and  _430
REMARK  175  A    between atoms: _433  and  _435
REMARK  176  A    between atoms: _435  and  _436
REMARK  177  A    between atoms: _438  and  _440
REMARK  178  A    between atoms: _440  and  _441
REMARK  179  A    between atoms: _440  and  _443
REMARK  180  A    between atoms: _443  and  _444
REMARK  181  A    between atoms: _447  and  _449
REMARK  182  A    between atoms: _449  and  _450
REMARK  183  A    between atoms: _449  and  _452
REMARK  184  A    between atoms: _452  and  _453
REMARK  185  A    between atoms: _458  and  _460
REMARK  186  A    between atoms: _460  and  _461
REMARK  187  A    between atoms: _460  and  _463
REMARK  188  A    between atoms: _466  and  _468
REMARK  189  A    between atoms: _468  and  _469
REMARK  190  A    between atoms: _468  and  _471
REMARK  191  A    between atoms: _471  and  _472
REMARK  192  A    between atoms: _472  and  _473
REMARK  193  A    between atoms: _478  and  _480
REMARK  194  A    between atoms: _480  and  _481
REMARK  195  A    between atoms: _485  and  _486
REMARK  196  A    between atoms: _491  and  _493
REMARK  197  A    between atoms: _493  and  _494
REMARK  198  A    between atoms: _493  and  _496
REMARK  199  A    between atoms: _496  and  _497
REMARK  200  A    between atoms: _497  and  _498
REMARK  201  A    between atoms: _501  and  _503
REMARK  202  A    between atoms: _503  and  _504
REMARK  203  A    between atoms: _503  and  _506
REMARK  204  A    between atoms: _509  and  _511
REMARK  205  A    between atoms: _511  and  _512
REMARK  206  A    between atoms: _511  and  _514
REMARK  207  A    between atoms: _514  and  _515
REMARK  208  A    between atoms: _519  and  _520
REMARK  209  A    between atoms: _525  and  _527
REMARK  210  A    between atoms: _527  and  _528
REMARK  211  A    between atoms: _527  and  _530
REMARK  212  A    between atoms: _530  and  _531
REMARK  213  A    between atoms: _534  and  _536
REMARK  214  A    between atoms: _536  and  _537
REMARK  215  A    between atoms: _540  and  _542
REMARK  216  A    between atoms: _542  and  _543
REMARK  217  A    between atoms: _542  and  _545
REMARK  218  A    between atoms: _545  and  _546
REMARK  219  A    between atoms: _549  and  _551
REMARK  220  A    between atoms: _551  and  _552
REMARK  221  A    between atoms: _551  and  _554
REMARK  222  A    between atoms: _554  and  _555
REMARK  223  A    between atoms: _557  and  _559
REMARK  224  A    between atoms: _559  and  _560
REMARK  225  A    between atoms: _562  and  _564
REMARK  226  A    between atoms: _564  and  _565
REMARK  227  A    between atoms: _564  and  _567
REMARK  228  A    between atoms: _567  and  _568
REMARK  229  A    between atoms: _571  and  _573
REMARK  230  A    between atoms: _573  and  _574
REMARK  231  A    between atoms: _573  and  _576
REMARK                            x       y       z     vdW  Elec       q    Type
REMARK                         _______ _______ _______ _____ _____    ______ ____
ROOT
ATOM      1  O   HOH     1       0.696   0.235   8.161  0.00  0.00    +0.000 OA
ENDROOT
TORSDOF 0
REMARK  Name = ../refined-set-2016/4xu0/4xu0_pocket.pdb
REMARK  231 active torsions:
REMARK  status: ('A' for Active; 'I' for Inactive)
REMARK    1  A    between atoms: _1  and  _3
REMARK    2  A    between atoms: _3  and  _4
REMARK    3  A    between atoms: _3  and  _6
REMARK    4  A    between atoms: _6  and  _7
REMARK    5  A    between atoms: _10  and  _12
REMARK    6  A    between atoms: _12  and  _13
REMARK    7  A    between atoms: _15  and  _17
REMARK    8  A    between atoms: _17  and  _18
REMARK    9  A    between atoms: _17  and  _20
REMARK   10  A    between atoms: _20  and  _21
REMARK   11  A    between atoms: _23  and  _25
REMARK   12  A    between atoms: _25  and  _26
REMARK   13  A    between atoms: _25  and  _28
REMARK   14  A    between atoms: _28  and  _29
REMARK   15  A    between atoms: _32  and  _34
REMARK   16  A    between atoms: _34  and  _35
REMARK   17  A    between atoms: _34  and  _37
REMARK   18  A    between atoms: _37  and  _38
REMARK   19  A    between atoms: _43  and  _45
REMARK   20  A    between atoms: _45  and  _46
REMARK   21  A    between atoms: _49  and  _51
REMARK   22  A    between atoms: _51  and  _52
REMARK   23  A    between atoms: _51  and  _54
REMARK   24  A    between atoms: _54  and  _55
REMARK   25  A    between atoms: _58  and  _60
REMARK   26  A    between atoms: _60  and  _61
REMARK   27  A    between atoms: _60  and  _63
REMARK   28  A    between atoms: _63  and  _64
REMARK   29  A    between atoms: _67  and  _69
REMARK   30  A    between atoms: _69  and  _70
REMARK   31  A    between atoms: _69  and  _72
REMARK   32  A    between atoms: _72  and  _73
REMARK   33  A    between atoms: _76  and  _78
REMARK   34  A    between atoms: _78  and  _79
REMARK   35  A    between atoms: _82  and  _84
REMARK   36  A    between atoms: _84  and  _85
REMARK   37  A    between atoms: _84  and  _87
REMARK   38  A    between atoms: _87  and  _88
REMARK   39  A    between atoms: _88  and  _89
REMARK   40  A    between atoms: _94  and  _96
REMARK   41  A    between atoms: _96  and  _97
REMARK   42  A    between atoms: _96  and  _99
REMARK   43  A    between atoms: _99  and  _100
REMARK   44  A    between atoms: _103  and  _105
REMARK   45  A    between atoms: _105  and  _106
REMARK   46  A    between atoms: _109  and  _111
REMARK   47  A    between atoms: _111  and  _112
REMARK   48  A    between atoms: _114  and  _116
REMARK   49  A    between atoms: _116  and  _117
REMARK   50  A    between atoms: _116  and  _119
REMARK   51  A    between atoms: _119  and  _120
REMARK   52  A    between atoms: _120  and  _121
REMARK   53  A    between atoms: _121  and  _122
REMARK   54  A    between atoms: _131  and  _133
REMARK   55  A    between atoms: _133  and  _134
REMARK   56  A    between atoms: _136  and  _138
REMARK   57  A    between atoms: _138  and  _139
REMARK   58  A    between atoms: _138  and  _141
REMARK   59  A    between atoms: _141  and  _142
REMARK   60  A    between atoms: _142  and  _143
REMARK   61  A    between atoms: _143  and  _144
REMARK   62  A    between atoms: _153  and  _155
REMARK   63  A    between atoms: _155  and  _156
REMARK   64  A    between atoms: _155  and  _158
REMARK   65  A    between atoms: _158  and  _159
REMARK   66  A    between atoms: _164  and  _166
REMARK   67  A    between atoms: _166  and  _167
REMARK   68  A    between atoms: _169  and  _171
REMARK   69  A    between atoms: _171  and  _172
REMARK   70  A    between atoms: _171  and  _174
REMARK   71  A    between atoms: _174  and  _175
REMARK   72  A    between atoms: _175  and  _176
REMARK   73  A    between atoms: _176  and  _177
REMARK   74  A    between atoms: _186  and  _188
REMARK   75  A    between atoms: _188  and  _189
REMARK   76  A    between atoms: _191  and  _193
REMARK   77  A    between atoms: _193  and  _194
REMARK   78  A    between atoms: _193  and  _196
REMARK   79  A    between atoms: _196  and  _197
REMARK   80  A    between atoms: _207  and  _209
REMARK   81  A    between atoms: _209  and  _210
REMARK   82  A    between atoms: _213  and  _215
REMARK   83  A    between atoms: _215  and  _216
REMARK   84  A    between atoms: _219  and  _221
REMARK   85  A    between atoms: _221  and  _222
REMARK   86  A    between atoms: _221  and  _224
REMARK   87  A    between atoms: _224  and  _225
REMARK   88  A    between atoms: _228  and  _230
REMARK   89  A    between atoms: _230  and  _231
REMARK   90  A    between atoms: _230  and  _233
REMARK   91  A    between atoms: _233  and  _234
REMARK   92  A    between atoms: _234  and  _235
REMARK   93  A    between atoms: _240  and  _242
REMARK   94  A    between atoms: _242  and  _243
REMARK   95  A    between atoms: _242  and  _245
REMARK   96  A    between atoms: _245  and  _246
REMARK   97  A    between atoms: _249  and  _251
REMARK   98  A    between atoms: _251  and  _252
REMARK   99  A    between atoms: _251  and  _254
REMARK  100  A    between atoms: _254  and  _255
REMARK  101  A    between atoms: _258  and  _260
REMARK  102  A    between atoms: _260  and  _261
REMARK  103  A    between atoms: _260  and  _263
REMARK  104  A    between atoms: _263  and  _264
REMARK  105  A    between atoms: _267  and  _269
REMARK  106  A    between atoms: _269  and  _270
REMARK  107  A    between atoms: _269  and  _272
REMARK  108  A    between atoms: _272  and  _273
REMARK  109  A    between atoms: _275  and  _277
REMARK  110  A    between atoms: _277  and  _278
REMARK  111  A    between atoms: _277  and  _280
REMARK  112  A    between atoms: _283  and  _285
REMARK  113  A    between atoms: _285  and  _286
REMARK  114  A    between atoms: _285  and  _288
REMARK  115  A    between atoms: _288  and  _289
REMARK  116  A    between atoms: _289  and  _290
REMARK  117  A    between atoms: _290  and  _291
REMARK  118  A    between atoms: _291  and  _292
REMARK  119  A    between atoms: _297  and  _298
REMARK  120  A    between atoms: _303  and  _305
REMARK  121  A    between atoms: _305  and  _306
REMARK  122  A    between atoms: _305  and  _308
REMARK  123  A    between atoms: _308  and  _309
REMARK  124  A    between atoms: _314  and  _316
REMARK  125  A    between atoms: _316  and  _317
REMARK  126  A    between atoms: _316  and  _319
REMARK  127  A    between atoms: _319  and  _320
REMARK  128  A    between atoms: _323  and  _325
REMARK  129  A    between atoms: _325  and  _326
REMARK  130  A    between atoms: _325  and  _328
REMARK  131  A    between atoms: _331  and  _333
REMARK  132  A    between atoms: _333  and  _334
REMARK  133  A    between atoms: _336  and  _338
REMARK  134  A    between atoms: _338  and  _339
REMARK  135  A    between atoms: _338  and  _341
REMARK  136  A    between atoms: _341  and  _342
REMARK  137  A    between atoms: _342  and  _343
REMARK  138  A    between atoms: _343  and  _344
REMARK  139  A    between atoms: _344  and  _345
REMARK  140  A    between atoms: _349  and  _351
REMARK  141  A    between atoms: _351  and  _352
REMARK  142  A    between atoms: _351  and  _354
REMARK  143  A    between atoms: _354  and  _355
REMARK  144  A    between atoms: _358  and  _360
REMARK  145  A    between atoms: _360  and  _361
REMARK  146  A    between atoms: _364  and  _366
REMARK  147  A    between atoms: _366  and  _367
REMARK  148  A    between atoms: _369  and  _371
REMARK  149  A    between atoms: _371  and  _372
REMARK  150  A    between atoms: _371  and  _374
REMARK  151  A    between atoms: _374  and  _375
REMARK  152  A    between atoms: _378  and  _380
REMARK  153  A    between atoms: _380  and  _381
REMARK  154  A    between atoms: _380  and  _383
REMARK  155  A    between atoms: _383  and  _384
REMARK  156  A    between atoms: _387  and  _389
REMARK  157  A    between atoms: _389  and  _390
REMARK  158  A    between atoms: _393  and  _395
REMARK  159  A    between atoms: _395  and  _396
REMARK  160  A    between atoms: _395  and  _398
REMARK  161  A    between atoms: _398  and  _399
REMARK  162  A    between atoms: _399  and  _400
REMARK  163  A    between atoms: _403  and  _405
REMARK  164  A    between atoms: _405  and  _406
REMARK  165  A    between atoms: _405  and  _408
REMARK  166  A    between atoms: _411  and  _413
REMARK  167  A    between atoms: _413  and  _414
REMARK  168  A    between atoms: _413  and  _416
REMARK  169  A    between atoms: _416  and  _417
REMARK  170  A    between atoms: _420  and  _422
REMARK  171  A    between atoms: _422  and  _423
REMARK  172  A    between atoms: _425  and  _427
REMARK  173  A    between atoms: _427  and  _428
REMARK  174  A    between atoms: _427  and  _430
REMARK  175  A    between atoms: _433  and  _435
REMARK  176  A    between atoms: _435  and  _436
REMARK  177  A    between atoms: _438  and  _440
REMARK  178  A    between atoms: _440  and  _441
REMARK  179  A    between atoms: _440  and  _443
REMARK  180  A    between atoms: _443  and  _444
REMARK  181  A    between atoms: _447  and  _449
REMARK  182  A    between atoms: _449  and  _450
REMARK  183  A    between atoms: _449  and  _452
REMARK  184  A    between atoms: _452  and  _453
REMARK  185  A    between atoms: _458  and  _460
REMARK  186  A    between atoms: _460  and  _461
REMARK  187  A    between atoms: _460  and  _463
REMARK  188  A    between atoms: _466  and  _468
REMARK  189  A    between atoms: _468  and  _469
REMARK  190  A    between atoms: _468  and  _471
REMARK  191  A    between atoms: _471  and  _472
REMARK  192  A    between atoms: _472  and  _473
REMARK  193  A    between atoms: _478  and  _480
REMARK  194  A    between atoms: _480  and  _481
REMARK  195  A    between atoms: _485  and  _486
REMARK  196  A    between atoms: _491  and  _493
REMARK  197  A    between atoms: _493  and  _494
REMARK  198  A    between atoms: _493  and  _496
REMARK  199  A    between atoms: _496  and  _497
REMARK  200  A    between atoms: _497  and  _498
REMARK  201  A    between atoms: _501  and  _503
REMARK  202  A    between atoms: _503  and  _504
REMARK  203  A    between atoms: _503  and  _506
REMARK  204  A    between atoms: _509  and  _511
REMARK  205  A    between atoms: _511  and  _512
REMARK  206  A    between atoms: _511  and  _514
REMARK  207  A    between atoms: _514  and  _515
REMARK  208  A    between atoms: _519  and  _520
REMARK  209  A    between atoms: _525  and  _527
REMARK  210  A    between atoms: _527  and  _528
REMARK  211  A    between atoms: _527  and  _530
REMARK  212  A    between atoms: _530  and  _531
REMARK  213  A    between atoms: _534  and  _536
REMARK  214  A    between atoms: _536  and  _537
REMARK  215  A    between atoms: _540  and  _542
REMARK  216  A    between atoms: _542  and  _543
REMARK  217  A    between atoms: _542  and  _545
REMARK  218  A    between atoms: _545  and  _546
REMARK  219  A    between atoms: _549  and  _551
REMARK  220  A    between atoms: _551  and  _552
REMARK  221  A    between atoms: _551  and  _554
REMARK  222  A    between atoms: _554  and  _555
REMARK  223  A    between atoms: _557  and  _559
REMARK  224  A    between atoms: _559  and  _560
REMARK  225  A    between atoms: _562  and  _564
REMARK  226  A    between atoms: _564  and  _565
REMARK  227  A    between atoms: _564  and  _567
REMARK  228  A    between atoms: _567  and  _568
REMARK  229  A    between atoms: _571  and  _573
REMARK  230  A    between atoms: _573  and  _574
REMARK  231  A    between atoms: _573  and  _576
REMARK                            x       y       z     vdW  Elec       q    Type
REMARK                         _______ _______ _______ _____ _____    ______ ____
ROOT
ATOM      1  O   HOH     1      -3.435 -12.977   5.422  0.00  0.00    +0.000 OA
ENDROOT
TORSDOF 0
REMARK  Name = ../refined-set-2016/4xu0/4xu0_pocket.pdb
REMARK  231 active torsions:
REMARK  status: ('A' for Active; 'I' for Inactive)
REMARK    1  A    between atoms: _1  and  _3
REMARK    2  A    between atoms: _3  and  _4
REMARK    3  A    between atoms: _3  and  _6
REMARK    4  A    between atoms: _6  and  _7
REMARK    5  A    between atoms: _10  and  _12
REMARK    6  A    between atoms: _12  and  _13
REMARK    7  A    between atoms: _15  and  _17
REMARK    8  A    between atoms: _17  and  _18
REMARK    9  A    between atoms: _17  and  _20
REMARK   10  A    between atoms: _20  and  _21
REMARK   11  A    between atoms: _23  and  _25
REMARK   12  A    between atoms: _25  and  _26
REMARK   13  A    between atoms: _25  and  _28
REMARK   14  A    between atoms: _28  and  _29
REMARK   15  A    between atoms: _32  and  _34
REMARK   16  A    between atoms: _34  and  _35
REMARK   17  A    between atoms: _34  and  _37
REMARK   18  A    between atoms: _37  and  _38
REMARK   19  A    between atoms: _43  and  _45
REMARK   20  A    between atoms: _45  and  _46
REMARK   21  A    between atoms: _49  and  _51
REMARK   22  A    between atoms: _51  and  _52
REMARK   23  A    between atoms: _51  and  _54
REMARK   24  A    between atoms: _54  and  _55
REMARK   25  A    between atoms: _58  and  _60
REMARK   26  A    between atoms: _60  and  _61
REMARK   27  A    between atoms: _60  and  _63
REMARK   28  A    between atoms: _63  and  _64
REMARK   29  A    between atoms: _67  and  _69
REMARK   30  A    between atoms: _69  and  _70
REMARK   31  A    between atoms: _69  and  _72
REMARK   32  A    between atoms: _72  and  _73
REMARK   33  A    between atoms: _76  and  _78
REMARK   34  A    between atoms: _78  and  _79
REMARK   35  A    between atoms: _82  and  _84
REMARK   36  A    between atoms: _84  and  _85
REMARK   37  A    between atoms: _84  and  _87
REMARK   38  A    between atoms: _87  and  _88
REMARK   39  A    between atoms: _88  and  _89
REMARK   40  A    between atoms: _94  and  _96
REMARK   41  A    between atoms: _96  and  _97
REMARK   42  A    between atoms: _96  and  _99
REMARK   43  A    between atoms: _99  and  _100
REMARK   44  A    between atoms: _103  and  _105
REMARK   45  A    between atoms: _105  and  _106
REMARK   46  A    between atoms: _109  and  _111
REMARK   47  A    between atoms: _111  and  _112
REMARK   48  A    between atoms: _114  and  _116
REMARK   49  A    between atoms: _116  and  _117
REMARK   50  A    between atoms: _116  and  _119
REMARK   51  A    between atoms: _119  and  _120
REMARK   52  A    between atoms: _120  and  _121
REMARK   53  A    between atoms: _121  and  _122
REMARK   54  A    between atoms: _131  and  _133
REMARK   55  A    between atoms: _133  and  _134
REMARK   56  A    between atoms: _136  and  _138
REMARK   57  A    between atoms: _138  and  _139
REMARK   58  A    between atoms: _138  and  _141
REMARK   59  A    between atoms: _141  and  _142
REMARK   60  A    between atoms: _142  and  _143
REMARK   61  A    between atoms: _143  and  _144
REMARK   62  A    between atoms: _153  and  _155
REMARK   63  A    between atoms: _155  and  _156
REMARK   64  A    between atoms: _155  and  _158
REMARK   65  A    between atoms: _158  and  _159
REMARK   66  A    between atoms: _164  and  _166
REMARK   67  A    between atoms: _166  and  _167
REMARK   68  A    between atoms: _169  and  _171
REMARK   69  A    between atoms: _171  and  _172
REMARK   70  A    between atoms: _171  and  _174
REMARK   71  A    between atoms: _174  and  _175
REMARK   72  A    between atoms: _175  and  _176
REMARK   73  A    between atoms: _176  and  _177
REMARK   74  A    between atoms: _186  and  _188
REMARK   75  A    between atoms: _188  and  _189
REMARK   76  A    between atoms: _191  and  _193
REMARK   77  A    between atoms: _193  and  _194
REMARK   78  A    between atoms: _193  and  _196
REMARK   79  A    between atoms: _196  and  _197
REMARK   80  A    between atoms: _207  and  _209
REMARK   81  A    between atoms: _209  and  _210
REMARK   82  A    between atoms: _213  and  _215
REMARK   83  A    between atoms: _215  and  _216
REMARK   84  A    between atoms: _219  and  _221
REMARK   85  A    between atoms: _221  and  _222
REMARK   86  A    between atoms: _221  and  _224
REMARK   87  A    between atoms: _224  and  _225
REMARK   88  A    between atoms: _228  and  _230
REMARK   89  A    between atoms: _230  and  _231
REMARK   90  A    between atoms: _230  and  _233
REMARK   91  A    between atoms: _233  and  _234
REMARK   92  A    between atoms: _234  and  _235
REMARK   93  A    between atoms: _240  and  _242
REMARK   94  A    between atoms: _242  and  _243
REMARK   95  A    between atoms: _242  and  _245
REMARK   96  A    between atoms: _245  and  _246
REMARK   97  A    between atoms: _249  and  _251
REMARK   98  A    between atoms: _251  and  _252
REMARK   99  A    between atoms: _251  and  _254
REMARK  100  A    between atoms: _254  and  _255
REMARK  101  A    between atoms: _258  and  _260
REMARK  102  A    between atoms: _260  and  _261
REMARK  103  A    between atoms: _260  and  _263
REMARK  104  A    between atoms: _263  and  _264
REMARK  105  A    between atoms: _267  and  _269
REMARK  106  A    between atoms: _269  and  _270
REMARK  107  A    between atoms: _269  and  _272
REMARK  108  A    between atoms: _272  and  _273
REMARK  109  A    between atoms: _275  and  _277
REMARK  110  A    between atoms: _277  and  _278
REMARK  111  A    between atoms: _277  and  _280
REMARK  112  A    between atoms: _283  and  _285
REMARK  113  A    between atoms: _285  and  _286
REMARK  114  A    between atoms: _285  and  _288
REMARK  115  A    between atoms: _288  and  _289
REMARK  116  A    between atoms: _289  and  _290
REMARK  117  A    between atoms: _290  and  _291
REMARK  118  A    between atoms: _291  and  _292
REMARK  119  A    between atoms: _297  and  _298
REMARK  120  A    between atoms: _303  and  _305
REMARK  121  A    between atoms: _305  and  _306
REMARK  122  A    between atoms: _305  and  _308
REMARK  123  A    between atoms: _308  and  _309
REMARK  124  A    between atoms: _314  and  _316
REMARK  125  A    between atoms: _316  and  _317
REMARK  126  A    between atoms: _316  and  _319
REMARK  127  A    between atoms: _319  and  _320
REMARK  128  A    between atoms: _323  and  _325
REMARK  129  A    between atoms: _325  and  _326
REMARK  130  A    between atoms: _325  and  _328
REMARK  131  A    between atoms: _331  and  _333
REMARK  132  A    between atoms: _333  and  _334
REMARK  133  A    between atoms: _336  and  _338
REMARK  134  A    between atoms: _338  and  _339
REMARK  135  A    between atoms: _338  and  _341
REMARK  136  A    between atoms: _341  and  _342
REMARK  137  A    between atoms: _342  and  _343
REMARK  138  A    between atoms: _343  and  _344
REMARK  139  A    between atoms: _344  and  _345
REMARK  140  A    between atoms: _349  and  _351
REMARK  141  A    between atoms: _351  and  _352
REMARK  142  A    between atoms: _351  and  _354
REMARK  143  A    between atoms: _354  and  _355
REMARK  144  A    between atoms: _358  and  _360
REMARK  145  A    between atoms: _360  and  _361
REMARK  146  A    between atoms: _364  and  _366
REMARK  147  A    between atoms: _366  and  _367
REMARK  148  A    between atoms: _369  and  _371
REMARK  149  A    between atoms: _371  and  _372
REMARK  150  A    between atoms: _371  and  _374
REMARK  151  A    between atoms: _374  and  _375
REMARK  152  A    between atoms: _378  and  _380
REMARK  153  A    between atoms: _380  and  _381
REMARK  154  A    between atoms: _380  and  _383
REMARK  155  A    between atoms: _383  and  _384
REMARK  156  A    between atoms: _387  and  _389
REMARK  157  A    between atoms: _389  and  _390
REMARK  158  A    between atoms: _393  and  _395
REMARK  159  A    between atoms: _395  and  _396
REMARK  160  A    between atoms: _395  and  _398
REMARK  161  A    between atoms: _398  and  _399
REMARK  162  A    between atoms: _399  and  _400
REMARK  163  A    between atoms: _403  and  _405
REMARK  164  A    between atoms: _405  and  _406
REMARK  165  A    between atoms: _405  and  _408
REMARK  166  A    between atoms: _411  and  _413
REMARK  167  A    between atoms: _413  and  _414
REMARK  168  A    between atoms: _413  and  _416
REMARK  169  A    between atoms: _416  and  _417
REMARK  170  A    between atoms: _420  and  _422
REMARK  171  A    between atoms: _422  and  _423
REMARK  172  A    between atoms: _425  and  _427
REMARK  173  A    between atoms: _427  and  _428
REMARK  174  A    between atoms: _427  and  _430
REMARK  175  A    between atoms: _433  and  _435
REMARK  176  A    between atoms: _435  and  _436
REMARK  177  A    between atoms: _438  and  _440
REMARK  178  A    between atoms: _440  and  _441
REMARK  179  A    between atoms: _440  and  _443
REMARK  180  A    between atoms: _443  and  _444
REMARK  181  A    between atoms: _447  and  _449
REMARK  182  A    between atoms: _449  and  _450
REMARK  183  A    between atoms: _449  and  _452
REMARK  184  A    between atoms: _452  and  _453
REMARK  185  A    between atoms: _458  and  _460
REMARK  186  A    between atoms: _460  and  _461
REMARK  187  A    between atoms: _460  and  _463
REMARK  188  A    between atoms: _466  and  _468
REMARK  189  A    between atoms: _468  and  _469
REMARK  190  A    between atoms: _468  and  _471
REMARK  191  A    between atoms: _471  and  _472
REMARK  192  A    between atoms: _472  and  _473
REMARK  193  A    between atoms: _478  and  _480
REMARK  194  A    between atoms: _480  and  _481
REMARK  195  A    between atoms: _485  and  _486
REMARK  196  A    between atoms: _491  and  _493
REMARK  197  A    between atoms: _493  and  _494
REMARK  198  A    between atoms: _493  and  _496
REMARK  199  A    between atoms: _496  and  _497
REMARK  200  A    between atoms: _497  and  _498
REMARK  201  A    between atoms: _501  and  _503
REMARK  202  A    between atoms: _503  and  _504
REMARK  203  A    between atoms: _503  and  _506
REMARK  204  A    between atoms: _509  and  _511
REMARK  205  A    between atoms: _511  and  _512
REMARK  206  A    between atoms: _511  and  _514
REMARK  207  A    between atoms: _514  and  _515
REMARK  208  A    between atoms: _519  and  _520
REMARK  209  A    between atoms: _525  and  _527
REMARK  210  A    between atoms: _527  and  _528
REMARK  211  A    between atoms: _527  and  _530
REMARK  212  A    between atoms: _530  and  _531
REMARK  213  A    between atoms: _534  and  _536
REMARK  214  A    between atoms: _536  and  _537
REMARK  215  A    between atoms: _540  and  _542
REMARK  216  A    between atoms: _542  and  _543
REMARK  217  A    between atoms: _542  and  _545
REMARK  218  A    between atoms: _545  and  _546
REMARK  219  A    between atoms: _549  and  _551
REMARK  220  A    between atoms: _551  and  _552
REMARK  221  A    between atoms: _551  and  _554
REMARK  222  A    between atoms: _554  and  _555
REMARK  223  A    between atoms: _557  and  _559
REMARK  224  A    between atoms: _559  and  _560
REMARK  225  A    between atoms: _562  and  _564
REMARK  226  A    between atoms: _564  and  _565
REMARK  227  A    between atoms: _564  and  _567
REMARK  228  A    between atoms: _567  and  _568
REMARK  229  A    between atoms: _571  and  _573
REMARK  230  A    between atoms: _573  and  _574
REMARK  231  A    between atoms: _573  and  _576
REMARK                            x       y       z     vdW  Elec       q    Type
REMARK                         _______ _______ _______ _____ _____    ______ ____
ROOT
ATOM      1  O   HOH     1       7.665  -9.648  16.683  0.00  0.00    +0.000 OA
ENDROOT
TORSDOF 0
REMARK  Name = ../refined-set-2016/4xu0/4xu0_pocket.pdb
REMARK  231 active torsions:
REMARK  status: ('A' for Active; 'I' for Inactive)
REMARK    1  A    between atoms: _1  and  _3
REMARK    2  A    between atoms: _3  and  _4
REMARK    3  A    between atoms: _3  and  _6
REMARK    4  A    between atoms: _6  and  _7
REMARK    5  A    between atoms: _10  and  _12
REMARK    6  A    between atoms: _12  and  _13
REMARK    7  A    between atoms: _15  and  _17
REMARK    8  A    between atoms: _17  and  _18
REMARK    9  A    between atoms: _17  and  _20
REMARK   10  A    between atoms: _20  and  _21
REMARK   11  A    between atoms: _23  and  _25
REMARK   12  A    between atoms: _25  and  _26
REMARK   13  A    between atoms: _25  and  _28
REMARK   14  A    between atoms: _28  and  _29
REMARK   15  A    between atoms: _32  and  _34
REMARK   16  A    between atoms: _34  and  _35
REMARK   17  A    between atoms: _34  and  _37
REMARK   18  A    between atoms: _37  and  _38
REMARK   19  A    between atoms: _43  and  _45
REMARK   20  A    between atoms: _45  and  _46
REMARK   21  A    between atoms: _49  and  _51
REMARK   22  A    between atoms: _51  and  _52
REMARK   23  A    between atoms: _51  and  _54
REMARK   24  A    between atoms: _54  and  _55
REMARK   25  A    between atoms: _58  and  _60
REMARK   26  A    between atoms: _60  and  _61
REMARK   27  A    between atoms: _60  and  _63
REMARK   28  A    between atoms: _63  and  _64
REMARK   29  A    between atoms: _67  and  _69
REMARK   30  A    between atoms: _69  and  _70
REMARK   31  A    between atoms: _69  and  _72
REMARK   32  A    between atoms: _72  and  _73
REMARK   33  A    between atoms: _76  and  _78
REMARK   34  A    between atoms: _78  and  _79
REMARK   35  A    between atoms: _82  and  _84
REMARK   36  A    between atoms: _84  and  _85
REMARK   37  A    between atoms: _84  and  _87
REMARK   38  A    between atoms: _87  and  _88
REMARK   39  A    between atoms: _88  and  _89
REMARK   40  A    between atoms: _94  and  _96
REMARK   41  A    between atoms: _96  and  _97
REMARK   42  A    between atoms: _96  and  _99
REMARK   43  A    between atoms: _99  and  _100
REMARK   44  A    between atoms: _103  and  _105
REMARK   45  A    between atoms: _105  and  _106
REMARK   46  A    between atoms: _109  and  _111
REMARK   47  A    between atoms: _111  and  _112
REMARK   48  A    between atoms: _114  and  _116
REMARK   49  A    between atoms: _116  and  _117
REMARK   50  A    between atoms: _116  and  _119
REMARK   51  A    between atoms: _119  and  _120
REMARK   52  A    between atoms: _120  and  _121
REMARK   53  A    between atoms: _121  and  _122
REMARK   54  A    between atoms: _131  and  _133
REMARK   55  A    between atoms: _133  and  _134
REMARK   56  A    between atoms: _136  and  _138
REMARK   57  A    between atoms: _138  and  _139
REMARK   58  A    between atoms: _138  and  _141
REMARK   59  A    between atoms: _141  and  _142
REMARK   60  A    between atoms: _142  and  _143
REMARK   61  A    between atoms: _143  and  _144
REMARK   62  A    between atoms: _153  and  _155
REMARK   63  A    between atoms: _155  and  _156
REMARK   64  A    between atoms: _155  and  _158
REMARK   65  A    between atoms: _158  and  _159
REMARK   66  A    between atoms: _164  and  _166
REMARK   67  A    between atoms: _166  and  _167
REMARK   68  A    between atoms: _169  and  _171
REMARK   69  A    between atoms: _171  and  _172
REMARK   70  A    between atoms: _171  and  _174
REMARK   71  A    between atoms: _174  and  _175
REMARK   72  A    between atoms: _175  and  _176
REMARK   73  A    between atoms: _176  and  _177
REMARK   74  A    between atoms: _186  and  _188
REMARK   75  A    between atoms: _188  and  _189
REMARK   76  A    between atoms: _191  and  _193
REMARK   77  A    between atoms: _193  and  _194
REMARK   78  A    between atoms: _193  and  _196
REMARK   79  A    between atoms: _196  and  _197
REMARK   80  A    between atoms: _207  and  _209
REMARK   81  A    between atoms: _209  and  _210
REMARK   82  A    between atoms: _213  and  _215
REMARK   83  A    between atoms: _215  and  _216
REMARK   84  A    between atoms: _219  and  _221
REMARK   85  A    between atoms: _221  and  _222
REMARK   86  A    between atoms: _221  and  _224
REMARK   87  A    between atoms: _224  and  _225
REMARK   88  A    between atoms: _228  and  _230
REMARK   89  A    between atoms: _230  and  _231
REMARK   90  A    between atoms: _230  and  _233
REMARK   91  A    between atoms: _233  and  _234
REMARK   92  A    between atoms: _234  and  _235
REMARK   93  A    between atoms: _240  and  _242
REMARK   94  A    between atoms: _242  and  _243
REMARK   95  A    between atoms: _242  and  _245
REMARK   96  A    between atoms: _245  and  _246
REMARK   97  A    between atoms: _249  and  _251
REMARK   98  A    between atoms: _251  and  _252
REMARK   99  A    between atoms: _251  and  _254
REMARK  100  A    between atoms: _254  and  _255
REMARK  101  A    between atoms: _258  and  _260
REMARK  102  A    between atoms: _260  and  _261
REMARK  103  A    between atoms: _260  and  _263
REMARK  104  A    between atoms: _263  and  _264
REMARK  105  A    between atoms: _267  and  _269
REMARK  106  A    between atoms: _269  and  _270
REMARK  107  A    between atoms: _269  and  _272
REMARK  108  A    between atoms: _272  and  _273
REMARK  109  A    between atoms: _275  and  _277
REMARK  110  A    between atoms: _277  and  _278
REMARK  111  A    between atoms: _277  and  _280
REMARK  112  A    between atoms: _283  and  _285
REMARK  113  A    between atoms: _285  and  _286
REMARK  114  A    between atoms: _285  and  _288
REMARK  115  A    between atoms: _288  and  _289
REMARK  116  A    between atoms: _289  and  _290
REMARK  117  A    between atoms: _290  and  _291
REMARK  118  A    between atoms: _291  and  _292
REMARK  119  A    between atoms: _297  and  _298
REMARK  120  A    between atoms: _303  and  _305
REMARK  121  A    between atoms: _305  and  _306
REMARK  122  A    between atoms: _305  and  _308
REMARK  123  A    between atoms: _308  and  _309
REMARK  124  A    between atoms: _314  and  _316
REMARK  125  A    between atoms: _316  and  _317
REMARK  126  A    between atoms: _316  and  _319
REMARK  127  A    between atoms: _319  and  _320
REMARK  128  A    between atoms: _323  and  _325
REMARK  129  A    between atoms: _325  and  _326
REMARK  130  A    between atoms: _325  and  _328
REMARK  131  A    between atoms: _331  and  _333
REMARK  132  A    between atoms: _333  and  _334
REMARK  133  A    between atoms: _336  and  _338
REMARK  134  A    between atoms: _338  and  _339
REMARK  135  A    between atoms: _338  and  _341
REMARK  136  A    between atoms: _341  and  _342
REMARK  137  A    between atoms: _342  and  _343
REMARK  138  A    between atoms: _343  and  _344
REMARK  139  A    between atoms: _344  and  _345
REMARK  140  A    between atoms: _349  and  _351
REMARK  141  A    between atoms: _351  and  _352
REMARK  142  A    between atoms: _351  and  _354
REMARK  143  A    between atoms: _354  and  _355
REMARK  144  A    between atoms: _358  and  _360
REMARK  145  A    between atoms: _360  and  _361
REMARK  146  A    between atoms: _364  and  _366
REMARK  147  A    between atoms: _366  and  _367
REMARK  148  A    between atoms: _369  and  _371
REMARK  149  A    between atoms: _371  and  _372
REMARK  150  A    between atoms: _371  and  _374
REMARK  151  A    between atoms: _374  and  _375
REMARK  152  A    between atoms: _378  and  _380
REMARK  153  A    between atoms: _380  and  _381
REMARK  154  A    between atoms: _380  and  _383
REMARK  155  A    between atoms: _383  and  _384
REMARK  156  A    between atoms: _387  and  _389
REMARK  157  A    between atoms: _389  and  _390
REMARK  158  A    between atoms: _393  and  _395
REMARK  159  A    between atoms: _395  and  _396
REMARK  160  A    between atoms: _395  and  _398
REMARK  161  A    between atoms: _398  and  _399
REMARK  162  A    between atoms: _399  and  _400
REMARK  163  A    between atoms: _403  and  _405
REMARK  164  A    between atoms: _405  and  _406
REMARK  165  A    between atoms: _405  and  _408
REMARK  166  A    between atoms: _411  and  _413
REMARK  167  A    between atoms: _413  and  _414
REMARK  168  A    between atoms: _413  and  _416
REMARK  169  A    between atoms: _416  and  _417
REMARK  170  A    between atoms: _420  and  _422
REMARK  171  A    between atoms: _422  and  _423
REMARK  172  A    between atoms: _425  and  _427
REMARK  173  A    between atoms: _427  and  _428
REMARK  174  A    between atoms: _427  and  _430
REMARK  175  A    between atoms: _433  and  _435
REMARK  176  A    between atoms: _435  and  _436
REMARK  177  A    between atoms: _438  and  _440
REMARK  178  A    between atoms: _440  and  _441
REMARK  179  A    between atoms: _440  and  _443
REMARK  180  A    between atoms: _443  and  _444
REMARK  181  A    between atoms: _447  and  _449
REMARK  182  A    between atoms: _449  and  _450
REMARK  183  A    between atoms: _449  and  _452
REMARK  184  A    between atoms: _452  and  _453
REMARK  185  A    between atoms: _458  and  _460
REMARK  186  A    between atoms: _460  and  _461
REMARK  187  A    between atoms: _460  and  _463
REMARK  188  A    between atoms: _466  and  _468
REMARK  189  A    between atoms: _468  and  _469
REMARK  190  A    between atoms: _468  and  _471
REMARK  191  A    between atoms: _471  and  _472
REMARK  192  A    between atoms: _472  and  _473
REMARK  193  A    between atoms: _478  and  _480
REMARK  194  A    between atoms: _480  and  _481
REMARK  195  A    between atoms: _485  and  _486
REMARK  196  A    between atoms: _491  and  _493
REMARK  197  A    between atoms: _493  and  _494
REMARK  198  A    between atoms: _493  and  _496
REMARK  199  A    between atoms: _496  and  _497
REMARK  200  A    between atoms: _497  and  _498
REMARK  201  A    between atoms: _501  and  _503
REMARK  202  A    between atoms: _503  and  _504
REMARK  203  A    between atoms: _503  and  _506
REMARK  204  A    between atoms: _509  and  _511
REMARK  205  A    between atoms: _511  and  _512
REMARK  206  A    between atoms: _511  and  _514
REMARK  207  A    between atoms: _514  and  _515
REMARK  208  A    between atoms: _519  and  _520
REMARK  209  A    between atoms: _525  and  _527
REMARK  210  A    between atoms: _527  and  _528
REMARK  211  A    between atoms: _527  and  _530
REMARK  212  A    between atoms: _530  and  _531
REMARK  213  A    between atoms: _534  and  _536
REMARK  214  A    between atoms: _536  and  _537
REMARK  215  A    between atoms: _540  and  _542
REMARK  216  A    between atoms: _542  and  _543
REMARK  217  A    between atoms: _542  and  _545
REMARK  218  A    between atoms: _545  and  _546
REMARK  219  A    between atoms: _549  and  _551
REMARK  220  A    between atoms: _551  and  _552
REMARK  221  A    between atoms: _551  and  _554
REMARK  222  A    between atoms: _554  and  _555
REMARK  223  A    between atoms: _557  and  _559
REMARK  224  A    between atoms: _559  and  _560
REMARK  225  A    between atoms: _562  and  _564
REMARK  226  A    between atoms: _564  and  _565
REMARK  227  A    between atoms: _564  and  _567
REMARK  228  A    between atoms: _567  and  _568
REMARK  229  A    between atoms: _571  and  _573
REMARK  230  A    between atoms: _573  and  _574
REMARK  231  A    between atoms: _573  and  _576
REMARK                            x       y       z     vdW  Elec       q    Type
REMARK                         _______ _______ _______ _____ _____    ______ ____
ROOT
ATOM      1  O   HOH     1      -7.086  -1.770   5.927  0.00  0.00    +0.000 OA
ENDROOT
TORSDOF 0
REMARK  Name = ../refined-set-2016/4xu0/4xu0_pocket.pdb
REMARK  231 active torsions:
REMARK  status: ('A' for Active; 'I' for Inactive)
REMARK    1  A    between atoms: _1  and  _3
REMARK    2  A    between atoms: _3  and  _4
REMARK    3  A    between atoms: _3  and  _6
REMARK    4  A    between atoms: _6  and  _7
REMARK    5  A    between atoms: _10  and  _12
REMARK    6  A    between atoms: _12  and  _13
REMARK    7  A    between atoms: _15  and  _17
REMARK    8  A    between atoms: _17  and  _18
REMARK    9  A    between atoms: _17  and  _20
REMARK   10  A    between atoms: _20  and  _21
REMARK   11  A    between atoms: _23  and  _25
REMARK   12  A    between atoms: _25  and  _26
REMARK   13  A    between atoms: _25  and  _28
REMARK   14  A    between atoms: _28  and  _29
REMARK   15  A    between atoms: _32  and  _34
REMARK   16  A    between atoms: _34  and  _35
REMARK   17  A    between atoms: _34  and  _37
REMARK   18  A    between atoms: _37  and  _38
REMARK   19  A    between atoms: _43  and  _45
REMARK   20  A    between atoms: _45  and  _46
REMARK   21  A    between atoms: _49  and  _51
REMARK   22  A    between atoms: _51  and  _52
REMARK   23  A    between atoms: _51  and  _54
REMARK   24  A    between atoms: _54  and  _55
REMARK   25  A    between atoms: _58  and  _60
REMARK   26  A    between atoms: _60  and  _61
REMARK   27  A    between atoms: _60  and  _63
REMARK   28  A    between atoms: _63  and  _64
REMARK   29  A    between atoms: _67  and  _69
REMARK   30  A    between atoms: _69  and  _70
REMARK   31  A    between atoms: _69  and  _72
REMARK   32  A    between atoms: _72  and  _73
REMARK   33  A    between atoms: _76  and  _78
REMARK   34  A    between atoms: _78  and  _79
REMARK   35  A    between atoms: _82  and  _84
REMARK   36  A    between atoms: _84  and  _85
REMARK   37  A    between atoms: _84  and  _87
REMARK   38  A    between atoms: _87  and  _88
REMARK   39  A    between atoms: _88  and  _89
REMARK   40  A    between atoms: _94  and  _96
REMARK   41  A    between atoms: _96  and  _97
REMARK   42  A    between atoms: _96  and  _99
REMARK   43  A    between atoms: _99  and  _100
REMARK   44  A    between atoms: _103  and  _105
REMARK   45  A    between atoms: _105  and  _106
REMARK   46  A    between atoms: _109  and  _111
REMARK   47  A    between atoms: _111  and  _112
REMARK   48  A    between atoms: _114  and  _116
REMARK   49  A    between atoms: _116  and  _117
REMARK   50  A    between atoms: _116  and  _119
REMARK   51  A    between atoms: _119  and  _120
REMARK   52  A    between atoms: _120  and  _121
REMARK   53  A    between atoms: _121  and  _122
REMARK   54  A    between atoms: _131  and  _133
REMARK   55  A    between atoms: _133  and  _134
REMARK   56  A    between atoms: _136  and  _138
REMARK   57  A    between atoms: _138  and  _139
REMARK   58  A    between atoms: _138  and  _141
REMARK   59  A    between atoms: _141  and  _142
REMARK   60  A    between atoms: _142  and  _143
REMARK   61  A    between atoms: _143  and  _144
REMARK   62  A    between atoms: _153  and  _155
REMARK   63  A    between atoms: _155  and  _156
REMARK   64  A    between atoms: _155  and  _158
REMARK   65  A    between atoms: _158  and  _159
REMARK   66  A    between atoms: _164  and  _166
REMARK   67  A    between atoms: _166  and  _167
REMARK   68  A    between atoms: _169  and  _171
REMARK   69  A    between atoms: _171  and  _172
REMARK   70  A    between atoms: _171  and  _174
REMARK   71  A    between atoms: _174  and  _175
REMARK   72  A    between atoms: _175  and  _176
REMARK   73  A    between atoms: _176  and  _177
REMARK   74  A    between atoms: _186  and  _188
REMARK   75  A    between atoms: _188  and  _189
REMARK   76  A    between atoms: _191  and  _193
REMARK   77  A    between atoms: _193  and  _194
REMARK   78  A    between atoms: _193  and  _196
REMARK   79  A    between atoms: _196  and  _197
REMARK   80  A    between atoms: _207  and  _209
REMARK   81  A    between atoms: _209  and  _210
REMARK   82  A    between atoms: _213  and  _215
REMARK   83  A    between atoms: _215  and  _216
REMARK   84  A    between atoms: _219  and  _221
REMARK   85  A    between atoms: _221  and  _222
REMARK   86  A    between atoms: _221  and  _224
REMARK   87  A    between atoms: _224  and  _225
REMARK   88  A    between atoms: _228  and  _230
REMARK   89  A    between atoms: _230  and  _231
REMARK   90  A    between atoms: _230  and  _233
REMARK   91  A    between atoms: _233  and  _234
REMARK   92  A    between atoms: _234  and  _235
REMARK   93  A    between atoms: _240  and  _242
REMARK   94  A    between atoms: _242  and  _243
REMARK   95  A    between atoms: _242  and  _245
REMARK   96  A    between atoms: _245  and  _246
REMARK   97  A    between atoms: _249  and  _251
REMARK   98  A    between atoms: _251  and  _252
REMARK   99  A    between atoms: _251  and  _254
REMARK  100  A    between atoms: _254  and  _255
REMARK  101  A    between atoms: _258  and  _260
REMARK  102  A    between atoms: _260  and  _261
REMARK  103  A    between atoms: _260  and  _263
REMARK  104  A    between atoms: _263  and  _264
REMARK  105  A    between atoms: _267  and  _269
REMARK  106  A    between atoms: _269  and  _270
REMARK  107  A    between atoms: _269  and  _272
REMARK  108  A    between atoms: _272  and  _273
REMARK  109  A    between atoms: _275  and  _277
REMARK  110  A    between atoms: _277  and  _278
REMARK  111  A    between atoms: _277  and  _280
REMARK  112  A    between atoms: _283  and  _285
REMARK  113  A    between atoms: _285  and  _286
REMARK  114  A    between atoms: _285  and  _288
REMARK  115  A    between atoms: _288  and  _289
REMARK  116  A    between atoms: _289  and  _290
REMARK  117  A    between atoms: _290  and  _291
REMARK  118  A    between atoms: _291  and  _292
REMARK  119  A    between atoms: _297  and  _298
REMARK  120  A    between atoms: _303  and  _305
REMARK  121  A    between atoms: _305  and  _306
REMARK  122  A    between atoms: _305  and  _308
REMARK  123  A    between atoms: _308  and  _309
REMARK  124  A    between atoms: _314  and  _316
REMARK  125  A    between atoms: _316  and  _317
REMARK  126  A    between atoms: _316  and  _319
REMARK  127  A    between atoms: _319  and  _320
REMARK  128  A    between atoms: _323  and  _325
REMARK  129  A    between atoms: _325  and  _326
REMARK  130  A    between atoms: _325  and  _328
REMARK  131  A    between atoms: _331  and  _333
REMARK  132  A    between atoms: _333  and  _334
REMARK  133  A    between atoms: _336  and  _338
REMARK  134  A    between atoms: _338  and  _339
REMARK  135  A    between atoms: _338  and  _341
REMARK  136  A    between atoms: _341  and  _342
REMARK  137  A    between atoms: _342  and  _343
REMARK  138  A    between atoms: _343  and  _344
REMARK  139  A    between atoms: _344  and  _345
REMARK  140  A    between atoms: _349  and  _351
REMARK  141  A    between atoms: _351  and  _352
REMARK  142  A    between atoms: _351  and  _354
REMARK  143  A    between atoms: _354  and  _355
REMARK  144  A    between atoms: _358  and  _360
REMARK  145  A    between atoms: _360  and  _361
REMARK  146  A    between atoms: _364  and  _366
REMARK  147  A    between atoms: _366  and  _367
REMARK  148  A    between atoms: _369  and  _371
REMARK  149  A    between atoms: _371  and  _372
REMARK  150  A    between atoms: _371  and  _374
REMARK  151  A    between atoms: _374  and  _375
REMARK  152  A    between atoms: _378  and  _380
REMARK  153  A    between atoms: _380  and  _381
REMARK  154  A    between atoms: _380  and  _383
REMARK  155  A    between atoms: _383  and  _384
REMARK  156  A    between atoms: _387  and  _389
REMARK  157  A    between atoms: _389  and  _390
REMARK  158  A    between atoms: _393  and  _395
REMARK  159  A    between atoms: _395  and  _396
REMARK  160  A    between atoms: _395  and  _398
REMARK  161  A    between atoms: _398  and  _399
REMARK  162  A    between atoms: _399  and  _400
REMARK  163  A    between atoms: _403  and  _405
REMARK  164  A    between atoms: _405  and  _406
REMARK  165  A    between atoms: _405  and  _408
REMARK  166  A    between atoms: _411  and  _413
REMARK  167  A    between atoms: _413  and  _414
REMARK  168  A    between atoms: _413  and  _416
REMARK  169  A    between atoms: _416  and  _417
REMARK  170  A    between atoms: _420  and  _422
REMARK  171  A    between atoms: _422  and  _423
REMARK  172  A    between atoms: _425  and  _427
REMARK  173  A    between atoms: _427  and  _428
REMARK  174  A    between atoms: _427  and  _430
REMARK  175  A    between atoms: _433  and  _435
REMARK  176  A    between atoms: _435  and  _436
REMARK  177  A    between atoms: _438  and  _440
REMARK  178  A    between atoms: _440  and  _441
REMARK  179  A    between atoms: _440  and  _443
REMARK  180  A    between atoms: _443  and  _444
REMARK  181  A    between atoms: _447  and  _449
REMARK  182  A    between atoms: _449  and  _450
REMARK  183  A    between atoms: _449  and  _452
REMARK  184  A    between atoms: _452  and  _453
REMARK  185  A    between atoms: _458  and  _460
REMARK  186  A    between atoms: _460  and  _461
REMARK  187  A    between atoms: _460  and  _463
REMARK  188  A    between atoms: _466  and  _468
REMARK  189  A    between atoms: _468  and  _469
REMARK  190  A    between atoms: _468  and  _471
REMARK  191  A    between atoms: _471  and  _472
REMARK  192  A    between atoms: _472  and  _473
REMARK  193  A    between atoms: _478  and  _480
REMARK  194  A    between atoms: _480  and  _481
REMARK  195  A    between atoms: _485  and  _486
REMARK  196  A    between atoms: _491  and  _493
REMARK  197  A    between atoms: _493  and  _494
REMARK  198  A    between atoms: _493  and  _496
REMARK  199  A    between atoms: _496  and  _497
REMARK  200  A    between atoms: _497  and  _498
REMARK  201  A    between atoms: _501  and  _503
REMARK  202  A    between atoms: _503  and  _504
REMARK  203  A    between atoms: _503  and  _506
REMARK  204  A    between atoms: _509  and  _511
REMARK  205  A    between atoms: _511  and  _512
REMARK  206  A    between atoms: _511  and  _514
REMARK  207  A    between atoms: _514  and  _515
REMARK  208  A    between atoms: _519  and  _520
REMARK  209  A    between atoms: _525  and  _527
REMARK  210  A    between atoms: _527  and  _528
REMARK  211  A    between atoms: _527  and  _530
REMARK  212  A    between atoms: _530  and  _531
REMARK  213  A    between atoms: _534  and  _536
REMARK  214  A    between atoms: _536  and  _537
REMARK  215  A    between atoms: _540  and  _542
REMARK  216  A    between atoms: _542  and  _543
REMARK  217  A    between atoms: _542  and  _545
REMARK  218  A    between atoms: _545  and  _546
REMARK  219  A    between atoms: _549  and  _551
REMARK  220  A    between atoms: _551  and  _552
REMARK  221  A    between atoms: _551  and  _554
REMARK  222  A    between atoms: _554  and  _555
REMARK  223  A    between atoms: _557  and  _559
REMARK  224  A    between atoms: _559  and  _560
REMARK  225  A    between atoms: _562  and  _564
REMARK  226  A    between atoms: _564  and  _565
REMARK  227  A    between atoms: _564  and  _567
REMARK  228  A    between atoms: _567  and  _568
REMARK  229  A    between atoms: _571  and  _573
REMARK  230  A    between atoms: _573  and  _574
REMARK  231  A    between atoms: _573  and  _576
REMARK                            x       y       z     vdW  Elec       q    Type
REMARK                         _______ _______ _______ _____ _____    ______ ____
ROOT
ATOM      1  O   HOH     1     -11.010   1.923  16.015  0.00  0.00    +0.000 OA
ENDROOT
TORSDOF 0
REMARK  Name = ../refined-set-2016/4xu0/4xu0_pocket.pdb
REMARK  231 active torsions:
REMARK  status: ('A' for Active; 'I' for Inactive)
REMARK    1  A    between atoms: _1  and  _3
REMARK    2  A    between atoms: _3  and  _4
REMARK    3  A    between atoms: _3  and  _6
REMARK    4  A    between atoms: _6  and  _7
REMARK    5  A    between atoms: _10  and  _12
REMARK    6  A    between atoms: _12  and  _13
REMARK    7  A    between atoms: _15  and  _17
REMARK    8  A    between atoms: _17  and  _18
REMARK    9  A    between atoms: _17  and  _20
REMARK   10  A    between atoms: _20  and  _21
REMARK   11  A    between atoms: _23  and  _25
REMARK   12  A    between atoms: _25  and  _26
REMARK   13  A    between atoms: _25  and  _28
REMARK   14  A    between atoms: _28  and  _29
REMARK   15  A    between atoms: _32  and  _34
REMARK   16  A    between atoms: _34  and  _35
REMARK   17  A    between atoms: _34  and  _37
REMARK   18  A    between atoms: _37  and  _38
REMARK   19  A    between atoms: _43  and  _45
REMARK   20  A    between atoms: _45  and  _46
REMARK   21  A    between atoms: _49  and  _51
REMARK   22  A    between atoms: _51  and  _52
REMARK   23  A    between atoms: _51  and  _54
REMARK   24  A    between atoms: _54  and  _55
REMARK   25  A    between atoms: _58  and  _60
REMARK   26  A    between atoms: _60  and  _61
REMARK   27  A    between atoms: _60  and  _63
REMARK   28  A    between atoms: _63  and  _64
REMARK   29  A    between atoms: _67  and  _69
REMARK   30  A    between atoms: _69  and  _70
REMARK   31  A    between atoms: _69  and  _72
REMARK   32  A    between atoms: _72  and  _73
REMARK   33  A    between atoms: _76  and  _78
REMARK   34  A    between atoms: _78  and  _79
REMARK   35  A    between atoms: _82  and  _84
REMARK   36  A    between atoms: _84  and  _85
REMARK   37  A    between atoms: _84  and  _87
REMARK   38  A    between atoms: _87  and  _88
REMARK   39  A    between atoms: _88  and  _89
REMARK   40  A    between atoms: _94  and  _96
REMARK   41  A    between atoms: _96  and  _97
REMARK   42  A    between atoms: _96  and  _99
REMARK   43  A    between atoms: _99  and  _100
REMARK   44  A    between atoms: _103  and  _105
REMARK   45  A    between atoms: _105  and  _106
REMARK   46  A    between atoms: _109  and  _111
REMARK   47  A    between atoms: _111  and  _112
REMARK   48  A    between atoms: _114  and  _116
REMARK   49  A    between atoms: _116  and  _117
REMARK   50  A    between atoms: _116  and  _119
REMARK   51  A    between atoms: _119  and  _120
REMARK   52  A    between atoms: _120  and  _121
REMARK   53  A    between atoms: _121  and  _122
REMARK   54  A    between atoms: _131  and  _133
REMARK   55  A    between atoms: _133  and  _134
REMARK   56  A    between atoms: _136  and  _138
REMARK   57  A    between atoms: _138  and  _139
REMARK   58  A    between atoms: _138  and  _141
REMARK   59  A    between atoms: _141  and  _142
REMARK   60  A    between atoms: _142  and  _143
REMARK   61  A    between atoms: _143  and  _144
REMARK   62  A    between atoms: _153  and  _155
REMARK   63  A    between atoms: _155  and  _156
REMARK   64  A    between atoms: _155  and  _158
REMARK   65  A    between atoms: _158  and  _159
REMARK   66  A    between atoms: _164  and  _166
REMARK   67  A    between atoms: _166  and  _167
REMARK   68  A    between atoms: _169  and  _171
REMARK   69  A    between atoms: _171  and  _172
REMARK   70  A    between atoms: _171  and  _174
REMARK   71  A    between atoms: _174  and  _175
REMARK   72  A    between atoms: _175  and  _176
REMARK   73  A    between atoms: _176  and  _177
REMARK   74  A    between atoms: _186  and  _188
REMARK   75  A    between atoms: _188  and  _189
REMARK   76  A    between atoms: _191  and  _193
REMARK   77  A    between atoms: _193  and  _194
REMARK   78  A    between atoms: _193  and  _196
REMARK   79  A    between atoms: _196  and  _197
REMARK   80  A    between atoms: _207  and  _209
REMARK   81  A    between atoms: _209  and  _210
REMARK   82  A    between atoms: _213  and  _215
REMARK   83  A    between atoms: _215  and  _216
REMARK   84  A    between atoms: _219  and  _221
REMARK   85  A    between atoms: _221  and  _222
REMARK   86  A    between atoms: _221  and  _224
REMARK   87  A    between atoms: _224  and  _225
REMARK   88  A    between atoms: _228  and  _230
REMARK   89  A    between atoms: _230  and  _231
REMARK   90  A    between atoms: _230  and  _233
REMARK   91  A    between atoms: _233  and  _234
REMARK   92  A    between atoms: _234  and  _235
REMARK   93  A    between atoms: _240  and  _242
REMARK   94  A    between atoms: _242  and  _243
REMARK   95  A    between atoms: _242  and  _245
REMARK   96  A    between atoms: _245  and  _246
REMARK   97  A    between atoms: _249  and  _251
REMARK   98  A    between atoms: _251  and  _252
REMARK   99  A    between atoms: _251  and  _254
REMARK  100  A    between atoms: _254  and  _255
REMARK  101  A    between atoms: _258  and  _260
REMARK  102  A    between atoms: _260  and  _261
REMARK  103  A    between atoms: _260  and  _263
REMARK  104  A    between atoms: _263  and  _264
REMARK  105  A    between atoms: _267  and  _269
REMARK  106  A    between atoms: _269  and  _270
REMARK  107  A    between atoms: _269  and  _272
REMARK  108  A    between atoms: _272  and  _273
REMARK  109  A    between atoms: _275  and  _277
REMARK  110  A    between atoms: _277  and  _278
REMARK  111  A    between atoms: _277  and  _280
REMARK  112  A    between atoms: _283  and  _285
REMARK  113  A    between atoms: _285  and  _286
REMARK  114  A    between atoms: _285  and  _288
REMARK  115  A    between atoms: _288  and  _289
REMARK  116  A    between atoms: _289  and  _290
REMARK  117  A    between atoms: _290  and  _291
REMARK  118  A    between atoms: _291  and  _292
REMARK  119  A    between atoms: _297  and  _298
REMARK  120  A    between atoms: _303  and  _305
REMARK  121  A    between atoms: _305  and  _306
REMARK  122  A    between atoms: _305  and  _308
REMARK  123  A    between atoms: _308  and  _309
REMARK  124  A    between atoms: _314  and  _316
REMARK  125  A    between atoms: _316  and  _317
REMARK  126  A    between atoms: _316  and  _319
REMARK  127  A    between atoms: _319  and  _320
REMARK  128  A    between atoms: _323  and  _325
REMARK  129  A    between atoms: _325  and  _326
REMARK  130  A    between atoms: _325  and  _328
REMARK  131  A    between atoms: _331  and  _333
REMARK  132  A    between atoms: _333  and  _334
REMARK  133  A    between atoms: _336  and  _338
REMARK  134  A    between atoms: _338  and  _339
REMARK  135  A    between atoms: _338  and  _341
REMARK  136  A    between atoms: _341  and  _342
REMARK  137  A    between atoms: _342  and  _343
REMARK  138  A    between atoms: _343  and  _344
REMARK  139  A    between atoms: _344  and  _345
REMARK  140  A    between atoms: _349  and  _351
REMARK  141  A    between atoms: _351  and  _352
REMARK  142  A    between atoms: _351  and  _354
REMARK  143  A    between atoms: _354  and  _355
REMARK  144  A    between atoms: _358  and  _360
REMARK  145  A    between atoms: _360  and  _361
REMARK  146  A    between atoms: _364  and  _366
REMARK  147  A    between atoms: _366  and  _367
REMARK  148  A    between atoms: _369  and  _371
REMARK  149  A    between atoms: _371  and  _372
REMARK  150  A    between atoms: _371  and  _374
REMARK  151  A    between atoms: _374  and  _375
REMARK  152  A    between atoms: _378  and  _380
REMARK  153  A    between atoms: _380  and  _381
REMARK  154  A    between atoms: _380  and  _383
REMARK  155  A    between atoms: _383  and  _384
REMARK  156  A    between atoms: _387  and  _389
REMARK  157  A    between atoms: _389  and  _390
REMARK  158  A    between atoms: _393  and  _395
REMARK  159  A    between atoms: _395  and  _396
REMARK  160  A    between atoms: _395  and  _398
REMARK  161  A    between atoms: _398  and  _399
REMARK  162  A    between atoms: _399  and  _400
REMARK  163  A    between atoms: _403  and  _405
REMARK  164  A    between atoms: _405  and  _406
REMARK  165  A    between atoms: _405  and  _408
REMARK  166  A    between atoms: _411  and  _413
REMARK  167  A    between atoms: _413  and  _414
REMARK  168  A    between atoms: _413  and  _416
REMARK  169  A    between atoms: _416  and  _417
REMARK  170  A    between atoms: _420  and  _422
REMARK  171  A    between atoms: _422  and  _423
REMARK  172  A    between atoms: _425  and  _427
REMARK  173  A    between atoms: _427  and  _428
REMARK  174  A    between atoms: _427  and  _430
REMARK  175  A    between atoms: _433  and  _435
REMARK  176  A    between atoms: _435  and  _436
REMARK  177  A    between atoms: _438  and  _440
REMARK  178  A    between atoms: _440  and  _441
REMARK  179  A    between atoms: _440  and  _443
REMARK  180  A    between atoms: _443  and  _444
REMARK  181  A    between atoms: _447  and  _449
REMARK  182  A    between atoms: _449  and  _450
REMARK  183  A    between atoms: _449  and  _452
REMARK  184  A    between atoms: _452  and  _453
REMARK  185  A    between atoms: _458  and  _460
REMARK  186  A    between atoms: _460  and  _461
REMARK  187  A    between atoms: _460  and  _463
REMARK  188  A    between atoms: _466  and  _468
REMARK  189  A    between atoms: _468  and  _469
REMARK  190  A    between atoms: _468  and  _471
REMARK  191  A    between atoms: _471  and  _472
REMARK  192  A    between atoms: _472  and  _473
REMARK  193  A    between atoms: _478  and  _480
REMARK  194  A    between atoms: _480  and  _481
REMARK  195  A    between atoms: _485  and  _486
REMARK  196  A    between atoms: _491  and  _493
REMARK  197  A    between atoms: _493  and  _494
REMARK  198  A    between atoms: _493  and  _496
REMARK  199  A    between atoms: _496  and  _497
REMARK  200  A    between atoms: _497  and  _498
REMARK  201  A    between atoms: _501  and  _503
REMARK  202  A    between atoms: _503  and  _504
REMARK  203  A    between atoms: _503  and  _506
REMARK  204  A    between atoms: _509  and  _511
REMARK  205  A    between atoms: _511  and  _512
REMARK  206  A    between atoms: _511  and  _514
REMARK  207  A    between atoms: _514  and  _515
REMARK  208  A    between atoms: _519  and  _520
REMARK  209  A    between atoms: _525  and  _527
REMARK  210  A    between atoms: _527  and  _528
REMARK  211  A    between atoms: _527  and  _530
REMARK  212  A    between atoms: _530  and  _531
REMARK  213  A    between atoms: _534  and  _536
REMARK  214  A    between atoms: _536  and  _537
REMARK  215  A    between atoms: _540  and  _542
REMARK  216  A    between atoms: _542  and  _543
REMARK  217  A    between atoms: _542  and  _545
REMARK  218  A    between atoms: _545  and  _546
REMARK  219  A    between atoms: _549  and  _551
REMARK  220  A    between atoms: _551  and  _552
REMARK  221  A    between atoms: _551  and  _554
REMARK  222  A    between atoms: _554  and  _555
REMARK  223  A    between atoms: _557  and  _559
REMARK  224  A    between atoms: _559  and  _560
REMARK  225  A    between atoms: _562  and  _564
REMARK  226  A    between atoms: _564  and  _565
REMARK  227  A    between atoms: _564  and  _567
REMARK  228  A    between atoms: _567  and  _568
REMARK  229  A    between atoms: _571  and  _573
REMARK  230  A    between atoms: _573  and  _574
REMARK  231  A    between atoms: _573  and  _576
REMARK                            x       y       z     vdW  Elec       q    Type
REMARK                         _______ _______ _______ _____ _____    ______ ____
ROOT
ATOM      1  O   HOH     1       6.725  -7.459  15.051  0.00  0.00    +0.000 OA
ENDROOT
TORSDOF 0
REMARK  Name = ../refined-set-2016/4xu0/4xu0_pocket.pdb
REMARK  231 active torsions:
REMARK  status: ('A' for Active; 'I' for Inactive)
REMARK    1  A    between atoms: _1  and  _3
REMARK    2  A    between atoms: _3  and  _4
REMARK    3  A    between atoms: _3  and  _6
REMARK    4  A    between atoms: _6  and  _7
REMARK    5  A    between atoms: _10  and  _12
REMARK    6  A    between atoms: _12  and  _13
REMARK    7  A    between atoms: _15  and  _17
REMARK    8  A    between atoms: _17  and  _18
REMARK    9  A    between atoms: _17  and  _20
REMARK   10  A    between atoms: _20  and  _21
REMARK   11  A    between atoms: _23  and  _25
REMARK   12  A    between atoms: _25  and  _26
REMARK   13  A    between atoms: _25  and  _28
REMARK   14  A    between atoms: _28  and  _29
REMARK   15  A    between atoms: _32  and  _34
REMARK   16  A    between atoms: _34  and  _35
REMARK   17  A    between atoms: _34  and  _37
REMARK   18  A    between atoms: _37  and  _38
REMARK   19  A    between atoms: _43  and  _45
REMARK   20  A    between atoms: _45  and  _46
REMARK   21  A    between atoms: _49  and  _51
REMARK   22  A    between atoms: _51  and  _52
REMARK   23  A    between atoms: _51  and  _54
REMARK   24  A    between atoms: _54  and  _55
REMARK   25  A    between atoms: _58  and  _60
REMARK   26  A    between atoms: _60  and  _61
REMARK   27  A    between atoms: _60  and  _63
REMARK   28  A    between atoms: _63  and  _64
REMARK   29  A    between atoms: _67  and  _69
REMARK   30  A    between atoms: _69  and  _70
REMARK   31  A    between atoms: _69  and  _72
REMARK   32  A    between atoms: _72  and  _73
REMARK   33  A    between atoms: _76  and  _78
REMARK   34  A    between atoms: _78  and  _79
REMARK   35  A    between atoms: _82  and  _84
REMARK   36  A    between atoms: _84  and  _85
REMARK   37  A    between atoms: _84  and  _87
REMARK   38  A    between atoms: _87  and  _88
REMARK   39  A    between atoms: _88  and  _89
REMARK   40  A    between atoms: _94  and  _96
REMARK   41  A    between atoms: _96  and  _97
REMARK   42  A    between atoms: _96  and  _99
REMARK   43  A    between atoms: _99  and  _100
REMARK   44  A    between atoms: _103  and  _105
REMARK   45  A    between atoms: _105  and  _106
REMARK   46  A    between atoms: _109  and  _111
REMARK   47  A    between atoms: _111  and  _112
REMARK   48  A    between atoms: _114  and  _116
REMARK   49  A    between atoms: _116  and  _117
REMARK   50  A    between atoms: _116  and  _119
REMARK   51  A    between atoms: _119  and  _120
REMARK   52  A    between atoms: _120  and  _121
REMARK   53  A    between atoms: _121  and  _122
REMARK   54  A    between atoms: _131  and  _133
REMARK   55  A    between atoms: _133  and  _134
REMARK   56  A    between atoms: _136  and  _138
REMARK   57  A    between atoms: _138  and  _139
REMARK   58  A    between atoms: _138  and  _141
REMARK   59  A    between atoms: _141  and  _142
REMARK   60  A    between atoms: _142  and  _143
REMARK   61  A    between atoms: _143  and  _144
REMARK   62  A    between atoms: _153  and  _155
REMARK   63  A    between atoms: _155  and  _156
REMARK   64  A    between atoms: _155  and  _158
REMARK   65  A    between atoms: _158  and  _159
REMARK   66  A    between atoms: _164  and  _166
REMARK   67  A    between atoms: _166  and  _167
REMARK   68  A    between atoms: _169  and  _171
REMARK   69  A    between atoms: _171  and  _172
REMARK   70  A    between atoms: _171  and  _174
REMARK   71  A    between atoms: _174  and  _175
REMARK   72  A    between atoms: _175  and  _176
REMARK   73  A    between atoms: _176  and  _177
REMARK   74  A    between atoms: _186  and  _188
REMARK   75  A    between atoms: _188  and  _189
REMARK   76  A    between atoms: _191  and  _193
REMARK   77  A    between atoms: _193  and  _194
REMARK   78  A    between atoms: _193  and  _196
REMARK   79  A    between atoms: _196  and  _197
REMARK   80  A    between atoms: _207  and  _209
REMARK   81  A    between atoms: _209  and  _210
REMARK   82  A    between atoms: _213  and  _215
REMARK   83  A    between atoms: _215  and  _216
REMARK   84  A    between atoms: _219  and  _221
REMARK   85  A    between atoms: _221  and  _222
REMARK   86  A    between atoms: _221  and  _224
REMARK   87  A    between atoms: _224  and  _225
REMARK   88  A    between atoms: _228  and  _230
REMARK   89  A    between atoms: _230  and  _231
REMARK   90  A    between atoms: _230  and  _233
REMARK   91  A    between atoms: _233  and  _234
REMARK   92  A    between atoms: _234  and  _235
REMARK   93  A    between atoms: _240  and  _242
REMARK   94  A    between atoms: _242  and  _243
REMARK   95  A    between atoms: _242  and  _245
REMARK   96  A    between atoms: _245  and  _246
REMARK   97  A    between atoms: _249  and  _251
REMARK   98  A    between atoms: _251  and  _252
REMARK   99  A    between atoms: _251  and  _254
REMARK  100  A    between atoms: _254  and  _255
REMARK  101  A    between atoms: _258  and  _260
REMARK  102  A    between atoms: _260  and  _261
REMARK  103  A    between atoms: _260  and  _263
REMARK  104  A    between atoms: _263  and  _264
REMARK  105  A    between atoms: _267  and  _269
REMARK  106  A    between atoms: _269  and  _270
REMARK  107  A    between atoms: _269  and  _272
REMARK  108  A    between atoms: _272  and  _273
REMARK  109  A    between atoms: _275  and  _277
REMARK  110  A    between atoms: _277  and  _278
REMARK  111  A    between atoms: _277  and  _280
REMARK  112  A    between atoms: _283  and  _285
REMARK  113  A    between atoms: _285  and  _286
REMARK  114  A    between atoms: _285  and  _288
REMARK  115  A    between atoms: _288  and  _289
REMARK  116  A    between atoms: _289  and  _290
REMARK  117  A    between atoms: _290  and  _291
REMARK  118  A    between atoms: _291  and  _292
REMARK  119  A    between atoms: _297  and  _298
REMARK  120  A    between atoms: _303  and  _305
REMARK  121  A    between atoms: _305  and  _306
REMARK  122  A    between atoms: _305  and  _308
REMARK  123  A    between atoms: _308  and  _309
REMARK  124  A    between atoms: _314  and  _316
REMARK  125  A    between atoms: _316  and  _317
REMARK  126  A    between atoms: _316  and  _319
REMARK  127  A    between atoms: _319  and  _320
REMARK  128  A    between atoms: _323  and  _325
REMARK  129  A    between atoms: _325  and  _326
REMARK  130  A    between atoms: _325  and  _328
REMARK  131  A    between atoms: _331  and  _333
REMARK  132  A    between atoms: _333  and  _334
REMARK  133  A    between atoms: _336  and  _338
REMARK  134  A    between atoms: _338  and  _339
REMARK  135  A    between atoms: _338  and  _341
REMARK  136  A    between atoms: _341  and  _342
REMARK  137  A    between atoms: _342  and  _343
REMARK  138  A    between atoms: _343  and  _344
REMARK  139  A    between atoms: _344  and  _345
REMARK  140  A    between atoms: _349  and  _351
REMARK  141  A    between atoms: _351  and  _352
REMARK  142  A    between atoms: _351  and  _354
REMARK  143  A    between atoms: _354  and  _355
REMARK  144  A    between atoms: _358  and  _360
REMARK  145  A    between atoms: _360  and  _361
REMARK  146  A    between atoms: _364  and  _366
REMARK  147  A    between atoms: _366  and  _367
REMARK  148  A    between atoms: _369  and  _371
REMARK  149  A    between atoms: _371  and  _372
REMARK  150  A    between atoms: _371  and  _374
REMARK  151  A    between atoms: _374  and  _375
REMARK  152  A    between atoms: _378  and  _380
REMARK  153  A    between atoms: _380  and  _381
REMARK  154  A    between atoms: _380  and  _383
REMARK  155  A    between atoms: _383  and  _384
REMARK  156  A    between atoms: _387  and  _389
REMARK  157  A    between atoms: _389  and  _390
REMARK  158  A    between atoms: _393  and  _395
REMARK  159  A    between atoms: _395  and  _396
REMARK  160  A    between atoms: _395  and  _398
REMARK  161  A    between atoms: _398  and  _399
REMARK  162  A    between atoms: _399  and  _400
REMARK  163  A    between atoms: _403  and  _405
REMARK  164  A    between atoms: _405  and  _406
REMARK  165  A    between atoms: _405  and  _408
REMARK  166  A    between atoms: _411  and  _413
REMARK  167  A    between atoms: _413  and  _414
REMARK  168  A    between atoms: _413  and  _416
REMARK  169  A    between atoms: _416  and  _417
REMARK  170  A    between atoms: _420  and  _422
REMARK  171  A    between atoms: _422  and  _423
REMARK  172  A    between atoms: _425  and  _427
REMARK  173  A    between atoms: _427  and  _428
REMARK  174  A    between atoms: _427  and  _430
REMARK  175  A    between atoms: _433  and  _435
REMARK  176  A    between atoms: _435  and  _436
REMARK  177  A    between atoms: _438  and  _440
REMARK  178  A    between atoms: _440  and  _441
REMARK  179  A    between atoms: _440  and  _443
REMARK  180  A    between atoms: _443  and  _444
REMARK  181  A    between atoms: _447  and  _449
REMARK  182  A    between atoms: _449  and  _450
REMARK  183  A    between atoms: _449  and  _452
REMARK  184  A    between atoms: _452  and  _453
REMARK  185  A    between atoms: _458  and  _460
REMARK  186  A    between atoms: _460  and  _461
REMARK  187  A    between atoms: _460  and  _463
REMARK  188  A    between atoms: _466  and  _468
REMARK  189  A    between atoms: _468  and  _469
REMARK  190  A    between atoms: _468  and  _471
REMARK  191  A    between atoms: _471  and  _472
REMARK  192  A    between atoms: _472  and  _473
REMARK  193  A    between atoms: _478  and  _480
REMARK  194  A    between atoms: _480  and  _481
REMARK  195  A    between atoms: _485  and  _486
REMARK  196  A    between atoms: _491  and  _493
REMARK  197  A    between atoms: _493  and  _494
REMARK  198  A    between atoms: _493  and  _496
REMARK  199  A    between atoms: _496  and  _497
REMARK  200  A    between atoms: _497  and  _498
REMARK  201  A    between atoms: _501  and  _503
REMARK  202  A    between atoms: _503  and  _504
REMARK  203  A    between atoms: _503  and  _506
REMARK  204  A    between atoms: _509  and  _511
REMARK  205  A    between atoms: _511  and  _512
REMARK  206  A    between atoms: _511  and  _514
REMARK  207  A    between atoms: _514  and  _515
REMARK  208  A    between atoms: _519  and  _520
REMARK  209  A    between atoms: _525  and  _527
REMARK  210  A    between atoms: _527  and  _528
REMARK  211  A    between atoms: _527  and  _530
REMARK  212  A    between atoms: _530  and  _531
REMARK  213  A    between atoms: _534  and  _536
REMARK  214  A    between atoms: _536  and  _537
REMARK  215  A    between atoms: _540  and  _542
REMARK  216  A    between atoms: _542  and  _543
REMARK  217  A    between atoms: _542  and  _545
REMARK  218  A    between atoms: _545  and  _546
REMARK  219  A    between atoms: _549  and  _551
REMARK  220  A    between atoms: _551  and  _552
REMARK  221  A    between atoms: _551  and  _554
REMARK  222  A    between atoms: _554  and  _555
REMARK  223  A    between atoms: _557  and  _559
REMARK  224  A    between atoms: _559  and  _560
REMARK  225  A    between atoms: _562  and  _564
REMARK  226  A    between atoms: _564  and  _565
REMARK  227  A    between atoms: _564  and  _567
REMARK  228  A    between atoms: _567  and  _568
REMARK  229  A    between atoms: _571  and  _573
REMARK  230  A    between atoms: _573  and  _574
REMARK  231  A    between atoms: _573  and  _576
REMARK                            x       y       z     vdW  Elec       q    Type
REMARK                         _______ _______ _______ _____ _____    ______ ____
ROOT
ATOM      1  O   HOH     1      -5.704 -12.613   5.807  0.00  0.00    +0.000 OA
ENDROOT
TORSDOF 0
REMARK  Name = ../refined-set-2016/4xu0/4xu0_pocket.pdb
REMARK  231 active torsions:
REMARK  status: ('A' for Active; 'I' for Inactive)
REMARK    1  A    between atoms: _1  and  _3
REMARK    2  A    between atoms: _3  and  _4
REMARK    3  A    between atoms: _3  and  _6
REMARK    4  A    between atoms: _6  and  _7
REMARK    5  A    between atoms: _10  and  _12
REMARK    6  A    between atoms: _12  and  _13
REMARK    7  A    between atoms: _15  and  _17
REMARK    8  A    between atoms: _17  and  _18
REMARK    9  A    between atoms: _17  and  _20
REMARK   10  A    between atoms: _20  and  _21
REMARK   11  A    between atoms: _23  and  _25
REMARK   12  A    between atoms: _25  and  _26
REMARK   13  A    between atoms: _25  and  _28
REMARK   14  A    between atoms: _28  and  _29
REMARK   15  A    between atoms: _32  and  _34
REMARK   16  A    between atoms: _34  and  _35
REMARK   17  A    between atoms: _34  and  _37
REMARK   18  A    between atoms: _37  and  _38
REMARK   19  A    between atoms: _43  and  _45
REMARK   20  A    between atoms: _45  and  _46
REMARK   21  A    between atoms: _49  and  _51
REMARK   22  A    between atoms: _51  and  _52
REMARK   23  A    between atoms: _51  and  _54
REMARK   24  A    between atoms: _54  and  _55
REMARK   25  A    between atoms: _58  and  _60
REMARK   26  A    between atoms: _60  and  _61
REMARK   27  A    between atoms: _60  and  _63
REMARK   28  A    between atoms: _63  and  _64
REMARK   29  A    between atoms: _67  and  _69
REMARK   30  A    between atoms: _69  and  _70
REMARK   31  A    between atoms: _69  and  _72
REMARK   32  A    between atoms: _72  and  _73
REMARK   33  A    between atoms: _76  and  _78
REMARK   34  A    between atoms: _78  and  _79
REMARK   35  A    between atoms: _82  and  _84
REMARK   36  A    between atoms: _84  and  _85
REMARK   37  A    between atoms: _84  and  _87
REMARK   38  A    between atoms: _87  and  _88
REMARK   39  A    between atoms: _88  and  _89
REMARK   40  A    between atoms: _94  and  _96
REMARK   41  A    between atoms: _96  and  _97
REMARK   42  A    between atoms: _96  and  _99
REMARK   43  A    between atoms: _99  and  _100
REMARK   44  A    between atoms: _103  and  _105
REMARK   45  A    between atoms: _105  and  _106
REMARK   46  A    between atoms: _109  and  _111
REMARK   47  A    between atoms: _111  and  _112
REMARK   48  A    between atoms: _114  and  _116
REMARK   49  A    between atoms: _116  and  _117
REMARK   50  A    between atoms: _116  and  _119
REMARK   51  A    between atoms: _119  and  _120
REMARK   52  A    between atoms: _120  and  _121
REMARK   53  A    between atoms: _121  and  _122
REMARK   54  A    between atoms: _131  and  _133
REMARK   55  A    between atoms: _133  and  _134
REMARK   56  A    between atoms: _136  and  _138
REMARK   57  A    between atoms: _138  and  _139
REMARK   58  A    between atoms: _138  and  _141
REMARK   59  A    between atoms: _141  and  _142
REMARK   60  A    between atoms: _142  and  _143
REMARK   61  A    between atoms: _143  and  _144
REMARK   62  A    between atoms: _153  and  _155
REMARK   63  A    between atoms: _155  and  _156
REMARK   64  A    between atoms: _155  and  _158
REMARK   65  A    between atoms: _158  and  _159
REMARK   66  A    between atoms: _164  and  _166
REMARK   67  A    between atoms: _166  and  _167
REMARK   68  A    between atoms: _169  and  _171
REMARK   69  A    between atoms: _171  and  _172
REMARK   70  A    between atoms: _171  and  _174
REMARK   71  A    between atoms: _174  and  _175
REMARK   72  A    between atoms: _175  and  _176
REMARK   73  A    between atoms: _176  and  _177
REMARK   74  A    between atoms: _186  and  _188
REMARK   75  A    between atoms: _188  and  _189
REMARK   76  A    between atoms: _191  and  _193
REMARK   77  A    between atoms: _193  and  _194
REMARK   78  A    between atoms: _193  and  _196
REMARK   79  A    between atoms: _196  and  _197
REMARK   80  A    between atoms: _207  and  _209
REMARK   81  A    between atoms: _209  and  _210
REMARK   82  A    between atoms: _213  and  _215
REMARK   83  A    between atoms: _215  and  _216
REMARK   84  A    between atoms: _219  and  _221
REMARK   85  A    between atoms: _221  and  _222
REMARK   86  A    between atoms: _221  and  _224
REMARK   87  A    between atoms: _224  and  _225
REMARK   88  A    between atoms: _228  and  _230
REMARK   89  A    between atoms: _230  and  _231
REMARK   90  A    between atoms: _230  and  _233
REMARK   91  A    between atoms: _233  and  _234
REMARK   92  A    between atoms: _234  and  _235
REMARK   93  A    between atoms: _240  and  _242
REMARK   94  A    between atoms: _242  and  _243
REMARK   95  A    between atoms: _242  and  _245
REMARK   96  A    between atoms: _245  and  _246
REMARK   97  A    between atoms: _249  and  _251
REMARK   98  A    between atoms: _251  and  _252
REMARK   99  A    between atoms: _251  and  _254
REMARK  100  A    between atoms: _254  and  _255
REMARK  101  A    between atoms: _258  and  _260
REMARK  102  A    between atoms: _260  and  _261
REMARK  103  A    between atoms: _260  and  _263
REMARK  104  A    between atoms: _263  and  _264
REMARK  105  A    between atoms: _267  and  _269
REMARK  106  A    between atoms: _269  and  _270
REMARK  107  A    between atoms: _269  and  _272
REMARK  108  A    between atoms: _272  and  _273
REMARK  109  A    between atoms: _275  and  _277
REMARK  110  A    between atoms: _277  and  _278
REMARK  111  A    between atoms: _277  and  _280
REMARK  112  A    between atoms: _283  and  _285
REMARK  113  A    between atoms: _285  and  _286
REMARK  114  A    between atoms: _285  and  _288
REMARK  115  A    between atoms: _288  and  _289
REMARK  116  A    between atoms: _289  and  _290
REMARK  117  A    between atoms: _290  and  _291
REMARK  118  A    between atoms: _291  and  _292
REMARK  119  A    between atoms: _297  and  _298
REMARK  120  A    between atoms: _303  and  _305
REMARK  121  A    between atoms: _305  and  _306
REMARK  122  A    between atoms: _305  and  _308
REMARK  123  A    between atoms: _308  and  _309
REMARK  124  A    between atoms: _314  and  _316
REMARK  125  A    between atoms: _316  and  _317
REMARK  126  A    between atoms: _316  and  _319
REMARK  127  A    between atoms: _319  and  _320
REMARK  128  A    between atoms: _323  and  _325
REMARK  129  A    between atoms: _325  and  _326
REMARK  130  A    between atoms: _325  and  _328
REMARK  131  A    between atoms: _331  and  _333
REMARK  132  A    between atoms: _333  and  _334
REMARK  133  A    between atoms: _336  and  _338
REMARK  134  A    between atoms: _338  and  _339
REMARK  135  A    between atoms: _338  and  _341
REMARK  136  A    between atoms: _341  and  _342
REMARK  137  A    between atoms: _342  and  _343
REMARK  138  A    between atoms: _343  and  _344
REMARK  139  A    between atoms: _344  and  _345
REMARK  140  A    between atoms: _349  and  _351
REMARK  141  A    between atoms: _351  and  _352
REMARK  142  A    between atoms: _351  and  _354
REMARK  143  A    between atoms: _354  and  _355
REMARK  144  A    between atoms: _358  and  _360
REMARK  145  A    between atoms: _360  and  _361
REMARK  146  A    between atoms: _364  and  _366
REMARK  147  A    between atoms: _366  and  _367
REMARK  148  A    between atoms: _369  and  _371
REMARK  149  A    between atoms: _371  and  _372
REMARK  150  A    between atoms: _371  and  _374
REMARK  151  A    between atoms: _374  and  _375
REMARK  152  A    between atoms: _378  and  _380
REMARK  153  A    between atoms: _380  and  _381
REMARK  154  A    between atoms: _380  and  _383
REMARK  155  A    between atoms: _383  and  _384
REMARK  156  A    between atoms: _387  and  _389
REMARK  157  A    between atoms: _389  and  _390
REMARK  158  A    between atoms: _393  and  _395
REMARK  159  A    between atoms: _395  and  _396
REMARK  160  A    between atoms: _395  and  _398
REMARK  161  A    between atoms: _398  and  _399
REMARK  162  A    between atoms: _399  and  _400
REMARK  163  A    between atoms: _403  and  _405
REMARK  164  A    between atoms: _405  and  _406
REMARK  165  A    between atoms: _405  and  _408
REMARK  166  A    between atoms: _411  and  _413
REMARK  167  A    between atoms: _413  and  _414
REMARK  168  A    between atoms: _413  and  _416
REMARK  169  A    between atoms: _416  and  _417
REMARK  170  A    between atoms: _420  and  _422
REMARK  171  A    between atoms: _422  and  _423
REMARK  172  A    between atoms: _425  and  _427
REMARK  173  A    between atoms: _427  and  _428
REMARK  174  A    between atoms: _427  and  _430
REMARK  175  A    between atoms: _433  and  _435
REMARK  176  A    between atoms: _435  and  _436
REMARK  177  A    between atoms: _438  and  _440
REMARK  178  A    between atoms: _440  and  _441
REMARK  179  A    between atoms: _440  and  _443
REMARK  180  A    between atoms: _443  and  _444
REMARK  181  A    between atoms: _447  and  _449
REMARK  182  A    between atoms: _449  and  _450
REMARK  183  A    between atoms: _449  and  _452
REMARK  184  A    between atoms: _452  and  _453
REMARK  185  A    between atoms: _458  and  _460
REMARK  186  A    between atoms: _460  and  _461
REMARK  187  A    between atoms: _460  and  _463
REMARK  188  A    between atoms: _466  and  _468
REMARK  189  A    between atoms: _468  and  _469
REMARK  190  A    between atoms: _468  and  _471
REMARK  191  A    between atoms: _471  and  _472
REMARK  192  A    between atoms: _472  and  _473
REMARK  193  A    between atoms: _478  and  _480
REMARK  194  A    between atoms: _480  and  _481
REMARK  195  A    between atoms: _485  and  _486
REMARK  196  A    between atoms: _491  and  _493
REMARK  197  A    between atoms: _493  and  _494
REMARK  198  A    between atoms: _493  and  _496
REMARK  199  A    between atoms: _496  and  _497
REMARK  200  A    between atoms: _497  and  _498
REMARK  201  A    between atoms: _501  and  _503
REMARK  202  A    between atoms: _503  and  _504
REMARK  203  A    between atoms: _503  and  _506
REMARK  204  A    between atoms: _509  and  _511
REMARK  205  A    between atoms: _511  and  _512
REMARK  206  A    between atoms: _511  and  _514
REMARK  207  A    between atoms: _514  and  _515
REMARK  208  A    between atoms: _519  and  _520
REMARK  209  A    between atoms: _525  and  _527
REMARK  210  A    between atoms: _527  and  _528
REMARK  211  A    between atoms: _527  and  _530
REMARK  212  A    between atoms: _530  and  _531
REMARK  213  A    between atoms: _534  and  _536
REMARK  214  A    between atoms: _536  and  _537
REMARK  215  A    between atoms: _540  and  _542
REMARK  216  A    between atoms: _542  and  _543
REMARK  217  A    between atoms: _542  and  _545
REMARK  218  A    between atoms: _545  and  _546
REMARK  219  A    between atoms: _549  and  _551
REMARK  220  A    between atoms: _551  and  _552
REMARK  221  A    between atoms: _551  and  _554
REMARK  222  A    between atoms: _554  and  _555
REMARK  223  A    between atoms: _557  and  _559
REMARK  224  A    between atoms: _559  and  _560
REMARK  225  A    between atoms: _562  and  _564
REMARK  226  A    between atoms: _564  and  _565
REMARK  227  A    between atoms: _564  and  _567
REMARK  228  A    between atoms: _567  and  _568
REMARK  229  A    between atoms: _571  and  _573
REMARK  230  A    between atoms: _573  and  _574
REMARK  231  A    between atoms: _573  and  _576
REMARK                            x       y       z     vdW  Elec       q    Type
REMARK                         _______ _______ _______ _____ _____    ______ ____
ROOT
ATOM      1  O   HOH     1      -4.205  -9.659   0.230  0.00  0.00    +0.000 OA
ENDROOT
TORSDOF 0
REMARK  Name = ../refined-set-2016/4xu0/4xu0_pocket.pdb
REMARK  231 active torsions:
REMARK  status: ('A' for Active; 'I' for Inactive)
REMARK    1  A    between atoms: _1  and  _3
REMARK    2  A    between atoms: _3  and  _4
REMARK    3  A    between atoms: _3  and  _6
REMARK    4  A    between atoms: _6  and  _7
REMARK    5  A    between atoms: _10  and  _12
REMARK    6  A    between atoms: _12  and  _13
REMARK    7  A    between atoms: _15  and  _17
REMARK    8  A    between atoms: _17  and  _18
REMARK    9  A    between atoms: _17  and  _20
REMARK   10  A    between atoms: _20  and  _21
REMARK   11  A    between atoms: _23  and  _25
REMARK   12  A    between atoms: _25  and  _26
REMARK   13  A    between atoms: _25  and  _28
REMARK   14  A    between atoms: _28  and  _29
REMARK   15  A    between atoms: _32  and  _34
REMARK   16  A    between atoms: _34  and  _35
REMARK   17  A    between atoms: _34  and  _37
REMARK   18  A    between atoms: _37  and  _38
REMARK   19  A    between atoms: _43  and  _45
REMARK   20  A    between atoms: _45  and  _46
REMARK   21  A    between atoms: _49  and  _51
REMARK   22  A    between atoms: _51  and  _52
REMARK   23  A    between atoms: _51  and  _54
REMARK   24  A    between atoms: _54  and  _55
REMARK   25  A    between atoms: _58  and  _60
REMARK   26  A    between atoms: _60  and  _61
REMARK   27  A    between atoms: _60  and  _63
REMARK   28  A    between atoms: _63  and  _64
REMARK   29  A    between atoms: _67  and  _69
REMARK   30  A    between atoms: _69  and  _70
REMARK   31  A    between atoms: _69  and  _72
REMARK   32  A    between atoms: _72  and  _73
REMARK   33  A    between atoms: _76  and  _78
REMARK   34  A    between atoms: _78  and  _79
REMARK   35  A    between atoms: _82  and  _84
REMARK   36  A    between atoms: _84  and  _85
REMARK   37  A    between atoms: _84  and  _87
REMARK   38  A    between atoms: _87  and  _88
REMARK   39  A    between atoms: _88  and  _89
REMARK   40  A    between atoms: _94  and  _96
REMARK   41  A    between atoms: _96  and  _97
REMARK   42  A    between atoms: _96  and  _99
REMARK   43  A    between atoms: _99  and  _100
REMARK   44  A    between atoms: _103  and  _105
REMARK   45  A    between atoms: _105  and  _106
REMARK   46  A    between atoms: _109  and  _111
REMARK   47  A    between atoms: _111  and  _112
REMARK   48  A    between atoms: _114  and  _116
REMARK   49  A    between atoms: _116  and  _117
REMARK   50  A    between atoms: _116  and  _119
REMARK   51  A    between atoms: _119  and  _120
REMARK   52  A    between atoms: _120  and  _121
REMARK   53  A    between atoms: _121  and  _122
REMARK   54  A    between atoms: _131  and  _133
REMARK   55  A    between atoms: _133  and  _134
REMARK   56  A    between atoms: _136  and  _138
REMARK   57  A    between atoms: _138  and  _139
REMARK   58  A    between atoms: _138  and  _141
REMARK   59  A    between atoms: _141  and  _142
REMARK   60  A    between atoms: _142  and  _143
REMARK   61  A    between atoms: _143  and  _144
REMARK   62  A    between atoms: _153  and  _155
REMARK   63  A    between atoms: _155  and  _156
REMARK   64  A    between atoms: _155  and  _158
REMARK   65  A    between atoms: _158  and  _159
REMARK   66  A    between atoms: _164  and  _166
REMARK   67  A    between atoms: _166  and  _167
REMARK   68  A    between atoms: _169  and  _171
REMARK   69  A    between atoms: _171  and  _172
REMARK   70  A    between atoms: _171  and  _174
REMARK   71  A    between atoms: _174  and  _175
REMARK   72  A    between atoms: _175  and  _176
REMARK   73  A    between atoms: _176  and  _177
REMARK   74  A    between atoms: _186  and  _188
REMARK   75  A    between atoms: _188  and  _189
REMARK   76  A    between atoms: _191  and  _193
REMARK   77  A    between atoms: _193  and  _194
REMARK   78  A    between atoms: _193  and  _196
REMARK   79  A    between atoms: _196  and  _197
REMARK   80  A    between atoms: _207  and  _209
REMARK   81  A    between atoms: _209  and  _210
REMARK   82  A    between atoms: _213  and  _215
REMARK   83  A    between atoms: _215  and  _216
REMARK   84  A    between atoms: _219  and  _221
REMARK   85  A    between atoms: _221  and  _222
REMARK   86  A    between atoms: _221  and  _224
REMARK   87  A    between atoms: _224  and  _225
REMARK   88  A    between atoms: _228  and  _230
REMARK   89  A    between atoms: _230  and  _231
REMARK   90  A    between atoms: _230  and  _233
REMARK   91  A    between atoms: _233  and  _234
REMARK   92  A    between atoms: _234  and  _235
REMARK   93  A    between atoms: _240  and  _242
REMARK   94  A    between atoms: _242  and  _243
REMARK   95  A    between atoms: _242  and  _245
REMARK   96  A    between atoms: _245  and  _246
REMARK   97  A    between atoms: _249  and  _251
REMARK   98  A    between atoms: _251  and  _252
REMARK   99  A    between atoms: _251  and  _254
REMARK  100  A    between atoms: _254  and  _255
REMARK  101  A    between atoms: _258  and  _260
REMARK  102  A    between atoms: _260  and  _261
REMARK  103  A    between atoms: _260  and  _263
REMARK  104  A    between atoms: _263  and  _264
REMARK  105  A    between atoms: _267  and  _269
REMARK  106  A    between atoms: _269  and  _270
REMARK  107  A    between atoms: _269  and  _272
REMARK  108  A    between atoms: _272  and  _273
REMARK  109  A    between atoms: _275  and  _277
REMARK  110  A    between atoms: _277  and  _278
REMARK  111  A    between atoms: _277  and  _280
REMARK  112  A    between atoms: _283  and  _285
REMARK  113  A    between atoms: _285  and  _286
REMARK  114  A    between atoms: _285  and  _288
REMARK  115  A    between atoms: _288  and  _289
REMARK  116  A    between atoms: _289  and  _290
REMARK  117  A    between atoms: _290  and  _291
REMARK  118  A    between atoms: _291  and  _292
REMARK  119  A    between atoms: _297  and  _298
REMARK  120  A    between atoms: _303  and  _305
REMARK  121  A    between atoms: _305  and  _306
REMARK  122  A    between atoms: _305  and  _308
REMARK  123  A    between atoms: _308  and  _309
REMARK  124  A    between atoms: _314  and  _316
REMARK  125  A    between atoms: _316  and  _317
REMARK  126  A    between atoms: _316  and  _319
REMARK  127  A    between atoms: _319  and  _320
REMARK  128  A    between atoms: _323  and  _325
REMARK  129  A    between atoms: _325  and  _326
REMARK  130  A    between atoms: _325  and  _328
REMARK  131  A    between atoms: _331  and  _333
REMARK  132  A    between atoms: _333  and  _334
REMARK  133  A    between atoms: _336  and  _338
REMARK  134  A    between atoms: _338  and  _339
REMARK  135  A    between atoms: _338  and  _341
REMARK  136  A    between atoms: _341  and  _342
REMARK  137  A    between atoms: _342  and  _343
REMARK  138  A    between atoms: _343  and  _344
REMARK  139  A    between atoms: _344  and  _345
REMARK  140  A    between atoms: _349  and  _351
REMARK  141  A    between atoms: _351  and  _352
REMARK  142  A    between atoms: _351  and  _354
REMARK  143  A    between atoms: _354  and  _355
REMARK  144  A    between atoms: _358  and  _360
REMARK  145  A    between atoms: _360  and  _361
REMARK  146  A    between atoms: _364  and  _366
REMARK  147  A    between atoms: _366  and  _367
REMARK  148  A    between atoms: _369  and  _371
REMARK  149  A    between atoms: _371  and  _372
REMARK  150  A    between atoms: _371  and  _374
REMARK  151  A    between atoms: _374  and  _375
REMARK  152  A    between atoms: _378  and  _380
REMARK  153  A    between atoms: _380  and  _381
REMARK  154  A    between atoms: _380  and  _383
REMARK  155  A    between atoms: _383  and  _384
REMARK  156  A    between atoms: _387  and  _389
REMARK  157  A    between atoms: _389  and  _390
REMARK  158  A    between atoms: _393  and  _395
REMARK  159  A    between atoms: _395  and  _396
REMARK  160  A    between atoms: _395  and  _398
REMARK  161  A    between atoms: _398  and  _399
REMARK  162  A    between atoms: _399  and  _400
REMARK  163  A    between atoms: _403  and  _405
REMARK  164  A    between atoms: _405  and  _406
REMARK  165  A    between atoms: _405  and  _408
REMARK  166  A    between atoms: _411  and  _413
REMARK  167  A    between atoms: _413  and  _414
REMARK  168  A    between atoms: _413  and  _416
REMARK  169  A    between atoms: _416  and  _417
REMARK  170  A    between atoms: _420  and  _422
REMARK  171  A    between atoms: _422  and  _423
REMARK  172  A    between atoms: _425  and  _427
REMARK  173  A    between atoms: _427  and  _428
REMARK  174  A    between atoms: _427  and  _430
REMARK  175  A    between atoms: _433  and  _435
REMARK  176  A    between atoms: _435  and  _436
REMARK  177  A    between atoms: _438  and  _440
REMARK  178  A    between atoms: _440  and  _441
REMARK  179  A    between atoms: _440  and  _443
REMARK  180  A    between atoms: _443  and  _444
REMARK  181  A    between atoms: _447  and  _449
REMARK  182  A    between atoms: _449  and  _450
REMARK  183  A    between atoms: _449  and  _452
REMARK  184  A    between atoms: _452  and  _453
REMARK  185  A    between atoms: _458  and  _460
REMARK  186  A    between atoms: _460  and  _461
REMARK  187  A    between atoms: _460  and  _463
REMARK  188  A    between atoms: _466  and  _468
REMARK  189  A    between atoms: _468  and  _469
REMARK  190  A    between atoms: _468  and  _471
REMARK  191  A    between atoms: _471  and  _472
REMARK  192  A    between atoms: _472  and  _473
REMARK  193  A    between atoms: _478  and  _480
REMARK  194  A    between atoms: _480  and  _481
REMARK  195  A    between atoms: _485  and  _486
REMARK  196  A    between atoms: _491  and  _493
REMARK  197  A    between atoms: _493  and  _494
REMARK  198  A    between atoms: _493  and  _496
REMARK  199  A    between atoms: _496  and  _497
REMARK  200  A    between atoms: _497  and  _498
REMARK  201  A    between atoms: _501  and  _503
REMARK  202  A    between atoms: _503  and  _504
REMARK  203  A    between atoms: _503  and  _506
REMARK  204  A    between atoms: _509  and  _511
REMARK  205  A    between atoms: _511  and  _512
REMARK  206  A    between atoms: _511  and  _514
REMARK  207  A    between atoms: _514  and  _515
REMARK  208  A    between atoms: _519  and  _520
REMARK  209  A    between atoms: _525  and  _527
REMARK  210  A    between atoms: _527  and  _528
REMARK  211  A    between atoms: _527  and  _530
REMARK  212  A    between atoms: _530  and  _531
REMARK  213  A    between atoms: _534  and  _536
REMARK  214  A    between atoms: _536  and  _537
REMARK  215  A    between atoms: _540  and  _542
REMARK  216  A    between atoms: _542  and  _543
REMARK  217  A    between atoms: _542  and  _545
REMARK  218  A    between atoms: _545  and  _546
REMARK  219  A    between atoms: _549  and  _551
REMARK  220  A    between atoms: _551  and  _552
REMARK  221  A    between atoms: _551  and  _554
REMARK  222  A    between atoms: _554  and  _555
REMARK  223  A    between atoms: _557  and  _559
REMARK  224  A    between atoms: _559  and  _560
REMARK  225  A    between atoms: _562  and  _564
REMARK  226  A    between atoms: _564  and  _565
REMARK  227  A    between atoms: _564  and  _567
REMARK  228  A    between atoms: _567  and  _568
REMARK  229  A    between atoms: _571  and  _573
REMARK  230  A    between atoms: _573  and  _574
REMARK  231  A    between atoms: _573  and  _576
REMARK                            x       y       z     vdW  Elec       q    Type
REMARK                         _______ _______ _______ _____ _____    ______ ____
ROOT
ATOM      1  O   HOH     1       3.143  -8.830   6.876  0.00  0.00    +0.000 OA
ENDROOT
TORSDOF 0
REMARK  Name = ../refined-set-2016/4xu0/4xu0_pocket.pdb
REMARK  231 active torsions:
REMARK  status: ('A' for Active; 'I' for Inactive)
REMARK    1  A    between atoms: _1  and  _3
REMARK    2  A    between atoms: _3  and  _4
REMARK    3  A    between atoms: _3  and  _6
REMARK    4  A    between atoms: _6  and  _7
REMARK    5  A    between atoms: _10  and  _12
REMARK    6  A    between atoms: _12  and  _13
REMARK    7  A    between atoms: _15  and  _17
REMARK    8  A    between atoms: _17  and  _18
REMARK    9  A    between atoms: _17  and  _20
REMARK   10  A    between atoms: _20  and  _21
REMARK   11  A    between atoms: _23  and  _25
REMARK   12  A    between atoms: _25  and  _26
REMARK   13  A    between atoms: _25  and  _28
REMARK   14  A    between atoms: _28  and  _29
REMARK   15  A    between atoms: _32  and  _34
REMARK   16  A    between atoms: _34  and  _35
REMARK   17  A    between atoms: _34  and  _37
REMARK   18  A    between atoms: _37  and  _38
REMARK   19  A    between atoms: _43  and  _45
REMARK   20  A    between atoms: _45  and  _46
REMARK   21  A    between atoms: _49  and  _51
REMARK   22  A    between atoms: _51  and  _52
REMARK   23  A    between atoms: _51  and  _54
REMARK   24  A    between atoms: _54  and  _55
REMARK   25  A    between atoms: _58  and  _60
REMARK   26  A    between atoms: _60  and  _61
REMARK   27  A    between atoms: _60  and  _63
REMARK   28  A    between atoms: _63  and  _64
REMARK   29  A    between atoms: _67  and  _69
REMARK   30  A    between atoms: _69  and  _70
REMARK   31  A    between atoms: _69  and  _72
REMARK   32  A    between atoms: _72  and  _73
REMARK   33  A    between atoms: _76  and  _78
REMARK   34  A    between atoms: _78  and  _79
REMARK   35  A    between atoms: _82  and  _84
REMARK   36  A    between atoms: _84  and  _85
REMARK   37  A    between atoms: _84  and  _87
REMARK   38  A    between atoms: _87  and  _88
REMARK   39  A    between atoms: _88  and  _89
REMARK   40  A    between atoms: _94  and  _96
REMARK   41  A    between atoms: _96  and  _97
REMARK   42  A    between atoms: _96  and  _99
REMARK   43  A    between atoms: _99  and  _100
REMARK   44  A    between atoms: _103  and  _105
REMARK   45  A    between atoms: _105  and  _106
REMARK   46  A    between atoms: _109  and  _111
REMARK   47  A    between atoms: _111  and  _112
REMARK   48  A    between atoms: _114  and  _116
REMARK   49  A    between atoms: _116  and  _117
REMARK   50  A    between atoms: _116  and  _119
REMARK   51  A    between atoms: _119  and  _120
REMARK   52  A    between atoms: _120  and  _121
REMARK   53  A    between atoms: _121  and  _122
REMARK   54  A    between atoms: _131  and  _133
REMARK   55  A    between atoms: _133  and  _134
REMARK   56  A    between atoms: _136  and  _138
REMARK   57  A    between atoms: _138  and  _139
REMARK   58  A    between atoms: _138  and  _141
REMARK   59  A    between atoms: _141  and  _142
REMARK   60  A    between atoms: _142  and  _143
REMARK   61  A    between atoms: _143  and  _144
REMARK   62  A    between atoms: _153  and  _155
REMARK   63  A    between atoms: _155  and  _156
REMARK   64  A    between atoms: _155  and  _158
REMARK   65  A    between atoms: _158  and  _159
REMARK   66  A    between atoms: _164  and  _166
REMARK   67  A    between atoms: _166  and  _167
REMARK   68  A    between atoms: _169  and  _171
REMARK   69  A    between atoms: _171  and  _172
REMARK   70  A    between atoms: _171  and  _174
REMARK   71  A    between atoms: _174  and  _175
REMARK   72  A    between atoms: _175  and  _176
REMARK   73  A    between atoms: _176  and  _177
REMARK   74  A    between atoms: _186  and  _188
REMARK   75  A    between atoms: _188  and  _189
REMARK   76  A    between atoms: _191  and  _193
REMARK   77  A    between atoms: _193  and  _194
REMARK   78  A    between atoms: _193  and  _196
REMARK   79  A    between atoms: _196  and  _197
REMARK   80  A    between atoms: _207  and  _209
REMARK   81  A    between atoms: _209  and  _210
REMARK   82  A    between atoms: _213  and  _215
REMARK   83  A    between atoms: _215  and  _216
REMARK   84  A    between atoms: _219  and  _221
REMARK   85  A    between atoms: _221  and  _222
REMARK   86  A    between atoms: _221  and  _224
REMARK   87  A    between atoms: _224  and  _225
REMARK   88  A    between atoms: _228  and  _230
REMARK   89  A    between atoms: _230  and  _231
REMARK   90  A    between atoms: _230  and  _233
REMARK   91  A    between atoms: _233  and  _234
REMARK   92  A    between atoms: _234  and  _235
REMARK   93  A    between atoms: _240  and  _242
REMARK   94  A    between atoms: _242  and  _243
REMARK   95  A    between atoms: _242  and  _245
REMARK   96  A    between atoms: _245  and  _246
REMARK   97  A    between atoms: _249  and  _251
REMARK   98  A    between atoms: _251  and  _252
REMARK   99  A    between atoms: _251  and  _254
REMARK  100  A    between atoms: _254  and  _255
REMARK  101  A    between atoms: _258  and  _260
REMARK  102  A    between atoms: _260  and  _261
REMARK  103  A    between atoms: _260  and  _263
REMARK  104  A    between atoms: _263  and  _264
REMARK  105  A    between atoms: _267  and  _269
REMARK  106  A    between atoms: _269  and  _270
REMARK  107  A    between atoms: _269  and  _272
REMARK  108  A    between atoms: _272  and  _273
REMARK  109  A    between atoms: _275  and  _277
REMARK  110  A    between atoms: _277  and  _278
REMARK  111  A    between atoms: _277  and  _280
REMARK  112  A    between atoms: _283  and  _285
REMARK  113  A    between atoms: _285  and  _286
REMARK  114  A    between atoms: _285  and  _288
REMARK  115  A    between atoms: _288  and  _289
REMARK  116  A    between atoms: _289  and  _290
REMARK  117  A    between atoms: _290  and  _291
REMARK  118  A    between atoms: _291  and  _292
REMARK  119  A    between atoms: _297  and  _298
REMARK  120  A    between atoms: _303  and  _305
REMARK  121  A    between atoms: _305  and  _306
REMARK  122  A    between atoms: _305  and  _308
REMARK  123  A    between atoms: _308  and  _309
REMARK  124  A    between atoms: _314  and  _316
REMARK  125  A    between atoms: _316  and  _317
REMARK  126  A    between atoms: _316  and  _319
REMARK  127  A    between atoms: _319  and  _320
REMARK  128  A    between atoms: _323  and  _325
REMARK  129  A    between atoms: _325  and  _326
REMARK  130  A    between atoms: _325  and  _328
REMARK  131  A    between atoms: _331  and  _333
REMARK  132  A    between atoms: _333  and  _334
REMARK  133  A    between atoms: _336  and  _338
REMARK  134  A    between atoms: _338  and  _339
REMARK  135  A    between atoms: _338  and  _341
REMARK  136  A    between atoms: _341  and  _342
REMARK  137  A    between atoms: _342  and  _343
REMARK  138  A    between atoms: _343  and  _344
REMARK  139  A    between atoms: _344  and  _345
REMARK  140  A    between atoms: _349  and  _351
REMARK  141  A    between atoms: _351  and  _352
REMARK  142  A    between atoms: _351  and  _354
REMARK  143  A    between atoms: _354  and  _355
REMARK  144  A    between atoms: _358  and  _360
REMARK  145  A    between atoms: _360  and  _361
REMARK  146  A    between atoms: _364  and  _366
REMARK  147  A    between atoms: _366  and  _367
REMARK  148  A    between atoms: _369  and  _371
REMARK  149  A    between atoms: _371  and  _372
REMARK  150  A    between atoms: _371  and  _374
REMARK  151  A    between atoms: _374  and  _375
REMARK  152  A    between atoms: _378  and  _380
REMARK  153  A    between atoms: _380  and  _381
REMARK  154  A    between atoms: _380  and  _383
REMARK  155  A    between atoms: _383  and  _384
REMARK  156  A    between atoms: _387  and  _389
REMARK  157  A    between atoms: _389  and  _390
REMARK  158  A    between atoms: _393  and  _395
REMARK  159  A    between atoms: _395  and  _396
REMARK  160  A    between atoms: _395  and  _398
REMARK  161  A    between atoms: _398  and  _399
REMARK  162  A    between atoms: _399  and  _400
REMARK  163  A    between atoms: _403  and  _405
REMARK  164  A    between atoms: _405  and  _406
REMARK  165  A    between atoms: _405  and  _408
REMARK  166  A    between atoms: _411  and  _413
REMARK  167  A    between atoms: _413  and  _414
REMARK  168  A    between atoms: _413  and  _416
REMARK  169  A    between atoms: _416  and  _417
REMARK  170  A    between atoms: _420  and  _422
REMARK  171  A    between atoms: _422  and  _423
REMARK  172  A    between atoms: _425  and  _427
REMARK  173  A    between atoms: _427  and  _428
REMARK  174  A    between atoms: _427  and  _430
REMARK  175  A    between atoms: _433  and  _435
REMARK  176  A    between atoms: _435  and  _436
REMARK  177  A    between atoms: _438  and  _440
REMARK  178  A    between atoms: _440  and  _441
REMARK  179  A    between atoms: _440  and  _443
REMARK  180  A    between atoms: _443  and  _444
REMARK  181  A    between atoms: _447  and  _449
REMARK  182  A    between atoms: _449  and  _450
REMARK  183  A    between atoms: _449  and  _452
REMARK  184  A    between atoms: _452  and  _453
REMARK  185  A    between atoms: _458  and  _460
REMARK  186  A    between atoms: _460  and  _461
REMARK  187  A    between atoms: _460  and  _463
REMARK  188  A    between atoms: _466  and  _468
REMARK  189  A    between atoms: _468  and  _469
REMARK  190  A    between atoms: _468  and  _471
REMARK  191  A    between atoms: _471  and  _472
REMARK  192  A    between atoms: _472  and  _473
REMARK  193  A    between atoms: _478  and  _480
REMARK  194  A    between atoms: _480  and  _481
REMARK  195  A    between atoms: _485  and  _486
REMARK  196  A    between atoms: _491  and  _493
REMARK  197  A    between atoms: _493  and  _494
REMARK  198  A    between atoms: _493  and  _496
REMARK  199  A    between atoms: _496  and  _497
REMARK  200  A    between atoms: _497  and  _498
REMARK  201  A    between atoms: _501  and  _503
REMARK  202  A    between atoms: _503  and  _504
REMARK  203  A    between atoms: _503  and  _506
REMARK  204  A    between atoms: _509  and  _511
REMARK  205  A    between atoms: _511  and  _512
REMARK  206  A    between atoms: _511  and  _514
REMARK  207  A    between atoms: _514  and  _515
REMARK  208  A    between atoms: _519  and  _520
REMARK  209  A    between atoms: _525  and  _527
REMARK  210  A    between atoms: _527  and  _528
REMARK  211  A    between atoms: _527  and  _530
REMARK  212  A    between atoms: _530  and  _531
REMARK  213  A    between atoms: _534  and  _536
REMARK  214  A    between atoms: _536  and  _537
REMARK  215  A    between atoms: _540  and  _542
REMARK  216  A    between atoms: _542  and  _543
REMARK  217  A    between atoms: _542  and  _545
REMARK  218  A    between atoms: _545  and  _546
REMARK  219  A    between atoms: _549  and  _551
REMARK  220  A    between atoms: _551  and  _552
REMARK  221  A    between atoms: _551  and  _554
REMARK  222  A    between atoms: _554  and  _555
REMARK  223  A    between atoms: _557  and  _559
REMARK  224  A    between atoms: _559  and  _560
REMARK  225  A    between atoms: _562  and  _564
REMARK  226  A    between atoms: _564  and  _565
REMARK  227  A    between atoms: _564  and  _567
REMARK  228  A    between atoms: _567  and  _568
REMARK  229  A    between atoms: _571  and  _573
REMARK  230  A    between atoms: _573  and  _574
REMARK  231  A    between atoms: _573  and  _576
REMARK                            x       y       z     vdW  Elec       q    Type
REMARK                         _______ _______ _______ _____ _____    ______ ____
ROOT
ATOM      1  O   HOH     1      -8.726  -1.778   1.325  0.00  0.00    +0.000 OA
ENDROOT
TORSDOF 0
REMARK  Name = ../refined-set-2016/4xu0/4xu0_pocket.pdb
REMARK  231 active torsions:
REMARK  status: ('A' for Active; 'I' for Inactive)
REMARK    1  A    between atoms: _1  and  _3
REMARK    2  A    between atoms: _3  and  _4
REMARK    3  A    between atoms: _3  and  _6
REMARK    4  A    between atoms: _6  and  _7
REMARK    5  A    between atoms: _10  and  _12
REMARK    6  A    between atoms: _12  and  _13
REMARK    7  A    between atoms: _15  and  _17
REMARK    8  A    between atoms: _17  and  _18
REMARK    9  A    between atoms: _17  and  _20
REMARK   10  A    between atoms: _20  and  _21
REMARK   11  A    between atoms: _23  and  _25
REMARK   12  A    between atoms: _25  and  _26
REMARK   13  A    between atoms: _25  and  _28
REMARK   14  A    between atoms: _28  and  _29
REMARK   15  A    between atoms: _32  and  _34
REMARK   16  A    between atoms: _34  and  _35
REMARK   17  A    between atoms: _34  and  _37
REMARK   18  A    between atoms: _37  and  _38
REMARK   19  A    between atoms: _43  and  _45
REMARK   20  A    between atoms: _45  and  _46
REMARK   21  A    between atoms: _49  and  _51
REMARK   22  A    between atoms: _51  and  _52
REMARK   23  A    between atoms: _51  and  _54
REMARK   24  A    between atoms: _54  and  _55
REMARK   25  A    between atoms: _58  and  _60
REMARK   26  A    between atoms: _60  and  _61
REMARK   27  A    between atoms: _60  and  _63
REMARK   28  A    between atoms: _63  and  _64
REMARK   29  A    between atoms: _67  and  _69
REMARK   30  A    between atoms: _69  and  _70
REMARK   31  A    between atoms: _69  and  _72
REMARK   32  A    between atoms: _72  and  _73
REMARK   33  A    between atoms: _76  and  _78
REMARK   34  A    between atoms: _78  and  _79
REMARK   35  A    between atoms: _82  and  _84
REMARK   36  A    between atoms: _84  and  _85
REMARK   37  A    between atoms: _84  and  _87
REMARK   38  A    between atoms: _87  and  _88
REMARK   39  A    between atoms: _88  and  _89
REMARK   40  A    between atoms: _94  and  _96
REMARK   41  A    between atoms: _96  and  _97
REMARK   42  A    between atoms: _96  and  _99
REMARK   43  A    between atoms: _99  and  _100
REMARK   44  A    between atoms: _103  and  _105
REMARK   45  A    between atoms: _105  and  _106
REMARK   46  A    between atoms: _109  and  _111
REMARK   47  A    between atoms: _111  and  _112
REMARK   48  A    between atoms: _114  and  _116
REMARK   49  A    between atoms: _116  and  _117
REMARK   50  A    between atoms: _116  and  _119
REMARK   51  A    between atoms: _119  and  _120
REMARK   52  A    between atoms: _120  and  _121
REMARK   53  A    between atoms: _121  and  _122
REMARK   54  A    between atoms: _131  and  _133
REMARK   55  A    between atoms: _133  and  _134
REMARK   56  A    between atoms: _136  and  _138
REMARK   57  A    between atoms: _138  and  _139
REMARK   58  A    between atoms: _138  and  _141
REMARK   59  A    between atoms: _141  and  _142
REMARK   60  A    between atoms: _142  and  _143
REMARK   61  A    between atoms: _143  and  _144
REMARK   62  A    between atoms: _153  and  _155
REMARK   63  A    between atoms: _155  and  _156
REMARK   64  A    between atoms: _155  and  _158
REMARK   65  A    between atoms: _158  and  _159
REMARK   66  A    between atoms: _164  and  _166
REMARK   67  A    between atoms: _166  and  _167
REMARK   68  A    between atoms: _169  and  _171
REMARK   69  A    between atoms: _171  and  _172
REMARK   70  A    between atoms: _171  and  _174
REMARK   71  A    between atoms: _174  and  _175
REMARK   72  A    between atoms: _175  and  _176
REMARK   73  A    between atoms: _176  and  _177
REMARK   74  A    between atoms: _186  and  _188
REMARK   75  A    between atoms: _188  and  _189
REMARK   76  A    between atoms: _191  and  _193
REMARK   77  A    between atoms: _193  and  _194
REMARK   78  A    between atoms: _193  and  _196
REMARK   79  A    between atoms: _196  and  _197
REMARK   80  A    between atoms: _207  and  _209
REMARK   81  A    between atoms: _209  and  _210
REMARK   82  A    between atoms: _213  and  _215
REMARK   83  A    between atoms: _215  and  _216
REMARK   84  A    between atoms: _219  and  _221
REMARK   85  A    between atoms: _221  and  _222
REMARK   86  A    between atoms: _221  and  _224
REMARK   87  A    between atoms: _224  and  _225
REMARK   88  A    between atoms: _228  and  _230
REMARK   89  A    between atoms: _230  and  _231
REMARK   90  A    between atoms: _230  and  _233
REMARK   91  A    between atoms: _233  and  _234
REMARK   92  A    between atoms: _234  and  _235
REMARK   93  A    between atoms: _240  and  _242
REMARK   94  A    between atoms: _242  and  _243
REMARK   95  A    between atoms: _242  and  _245
REMARK   96  A    between atoms: _245  and  _246
REMARK   97  A    between atoms: _249  and  _251
REMARK   98  A    between atoms: _251  and  _252
REMARK   99  A    between atoms: _251  and  _254
REMARK  100  A    between atoms: _254  and  _255
REMARK  101  A    between atoms: _258  and  _260
REMARK  102  A    between atoms: _260  and  _261
REMARK  103  A    between atoms: _260  and  _263
REMARK  104  A    between atoms: _263  and  _264
REMARK  105  A    between atoms: _267  and  _269
REMARK  106  A    between atoms: _269  and  _270
REMARK  107  A    between atoms: _269  and  _272
REMARK  108  A    between atoms: _272  and  _273
REMARK  109  A    between atoms: _275  and  _277
REMARK  110  A    between atoms: _277  and  _278
REMARK  111  A    between atoms: _277  and  _280
REMARK  112  A    between atoms: _283  and  _285
REMARK  113  A    between atoms: _285  and  _286
REMARK  114  A    between atoms: _285  and  _288
REMARK  115  A    between atoms: _288  and  _289
REMARK  116  A    between atoms: _289  and  _290
REMARK  117  A    between atoms: _290  and  _291
REMARK  118  A    between atoms: _291  and  _292
REMARK  119  A    between atoms: _297  and  _298
REMARK  120  A    between atoms: _303  and  _305
REMARK  121  A    between atoms: _305  and  _306
REMARK  122  A    between atoms: _305  and  _308
REMARK  123  A    between atoms: _308  and  _309
REMARK  124  A    between atoms: _314  and  _316
REMARK  125  A    between atoms: _316  and  _317
REMARK  126  A    between atoms: _316  and  _319
REMARK  127  A    between atoms: _319  and  _320
REMARK  128  A    between atoms: _323  and  _325
REMARK  129  A    between atoms: _325  and  _326
REMARK  130  A    between atoms: _325  and  _328
REMARK  131  A    between atoms: _331  and  _333
REMARK  132  A    between atoms: _333  and  _334
REMARK  133  A    between atoms: _336  and  _338
REMARK  134  A    between atoms: _338  and  _339
REMARK  135  A    between atoms: _338  and  _341
REMARK  136  A    between atoms: _341  and  _342
REMARK  137  A    between atoms: _342  and  _343
REMARK  138  A    between atoms: _343  and  _344
REMARK  139  A    between atoms: _344  and  _345
REMARK  140  A    between atoms: _349  and  _351
REMARK  141  A    between atoms: _351  and  _352
REMARK  142  A    between atoms: _351  and  _354
REMARK  143  A    between atoms: _354  and  _355
REMARK  144  A    between atoms: _358  and  _360
REMARK  145  A    between atoms: _360  and  _361
REMARK  146  A    between atoms: _364  and  _366
REMARK  147  A    between atoms: _366  and  _367
REMARK  148  A    between atoms: _369  and  _371
REMARK  149  A    between atoms: _371  and  _372
REMARK  150  A    between atoms: _371  and  _374
REMARK  151  A    between atoms: _374  and  _375
REMARK  152  A    between atoms: _378  and  _380
REMARK  153  A    between atoms: _380  and  _381
REMARK  154  A    between atoms: _380  and  _383
REMARK  155  A    between atoms: _383  and  _384
REMARK  156  A    between atoms: _387  and  _389
REMARK  157  A    between atoms: _389  and  _390
REMARK  158  A    between atoms: _393  and  _395
REMARK  159  A    between atoms: _395  and  _396
REMARK  160  A    between atoms: _395  and  _398
REMARK  161  A    between atoms: _398  and  _399
REMARK  162  A    between atoms: _399  and  _400
REMARK  163  A    between atoms: _403  and  _405
REMARK  164  A    between atoms: _405  and  _406
REMARK  165  A    between atoms: _405  and  _408
REMARK  166  A    between atoms: _411  and  _413
REMARK  167  A    between atoms: _413  and  _414
REMARK  168  A    between atoms: _413  and  _416
REMARK  169  A    between atoms: _416  and  _417
REMARK  170  A    between atoms: _420  and  _422
REMARK  171  A    between atoms: _422  and  _423
REMARK  172  A    between atoms: _425  and  _427
REMARK  173  A    between atoms: _427  and  _428
REMARK  174  A    between atoms: _427  and  _430
REMARK  175  A    between atoms: _433  and  _435
REMARK  176  A    between atoms: _435  and  _436
REMARK  177  A    between atoms: _438  and  _440
REMARK  178  A    between atoms: _440  and  _441
REMARK  179  A    between atoms: _440  and  _443
REMARK  180  A    between atoms: _443  and  _444
REMARK  181  A    between atoms: _447  and  _449
REMARK  182  A    between atoms: _449  and  _450
REMARK  183  A    between atoms: _449  and  _452
REMARK  184  A    between atoms: _452  and  _453
REMARK  185  A    between atoms: _458  and  _460
REMARK  186  A    between atoms: _460  and  _461
REMARK  187  A    between atoms: _460  and  _463
REMARK  188  A    between atoms: _466  and  _468
REMARK  189  A    between atoms: _468  and  _469
REMARK  190  A    between atoms: _468  and  _471
REMARK  191  A    between atoms: _471  and  _472
REMARK  192  A    between atoms: _472  and  _473
REMARK  193  A    between atoms: _478  and  _480
REMARK  194  A    between atoms: _480  and  _481
REMARK  195  A    between atoms: _485  and  _486
REMARK  196  A    between atoms: _491  and  _493
REMARK  197  A    between atoms: _493  and  _494
REMARK  198  A    between atoms: _493  and  _496
REMARK  199  A    between atoms: _496  and  _497
REMARK  200  A    between atoms: _497  and  _498
REMARK  201  A    between atoms: _501  and  _503
REMARK  202  A    between atoms: _503  and  _504
REMARK  203  A    between atoms: _503  and  _506
REMARK  204  A    between atoms: _509  and  _511
REMARK  205  A    between atoms: _511  and  _512
REMARK  206  A    between atoms: _511  and  _514
REMARK  207  A    between atoms: _514  and  _515
REMARK  208  A    between atoms: _519  and  _520
REMARK  209  A    between atoms: _525  and  _527
REMARK  210  A    between atoms: _527  and  _528
REMARK  211  A    between atoms: _527  and  _530
REMARK  212  A    between atoms: _530  and  _531
REMARK  213  A    between atoms: _534  and  _536
REMARK  214  A    between atoms: _536  and  _537
REMARK  215  A    between atoms: _540  and  _542
REMARK  216  A    between atoms: _542  and  _543
REMARK  217  A    between atoms: _542  and  _545
REMARK  218  A    between atoms: _545  and  _546
REMARK  219  A    between atoms: _549  and  _551
REMARK  220  A    between atoms: _551  and  _552
REMARK  221  A    between atoms: _551  and  _554
REMARK  222  A    between atoms: _554  and  _555
REMARK  223  A    between atoms: _557  and  _559
REMARK  224  A    between atoms: _559  and  _560
REMARK  225  A    between atoms: _562  and  _564
REMARK  226  A    between atoms: _564  and  _565
REMARK  227  A    between atoms: _564  and  _567
REMARK  228  A    between atoms: _567  and  _568
REMARK  229  A    between atoms: _571  and  _573
REMARK  230  A    between atoms: _573  and  _574
REMARK  231  A    between atoms: _573  and  _576
REMARK                            x       y       z     vdW  Elec       q    Type
REMARK                         _______ _______ _______ _____ _____    ______ ____
ROOT
ATOM      1  O   HOH     1      -1.949  -4.625  -2.275  0.00  0.00    +0.000 OA
ENDROOT
TORSDOF 0
REMARK  Name = ../refined-set-2016/4xu0/4xu0_pocket.pdb
REMARK  231 active torsions:
REMARK  status: ('A' for Active; 'I' for Inactive)
REMARK    1  A    between atoms: _1  and  _3
REMARK    2  A    between atoms: _3  and  _4
REMARK    3  A    between atoms: _3  and  _6
REMARK    4  A    between atoms: _6  and  _7
REMARK    5  A    between atoms: _10  and  _12
REMARK    6  A    between atoms: _12  and  _13
REMARK    7  A    between atoms: _15  and  _17
REMARK    8  A    between atoms: _17  and  _18
REMARK    9  A    between atoms: _17  and  _20
REMARK   10  A    between atoms: _20  and  _21
REMARK   11  A    between atoms: _23  and  _25
REMARK   12  A    between atoms: _25  and  _26
REMARK   13  A    between atoms: _25  and  _28
REMARK   14  A    between atoms: _28  and  _29
REMARK   15  A    between atoms: _32  and  _34
REMARK   16  A    between atoms: _34  and  _35
REMARK   17  A    between atoms: _34  and  _37
REMARK   18  A    between atoms: _37  and  _38
REMARK   19  A    between atoms: _43  and  _45
REMARK   20  A    between atoms: _45  and  _46
REMARK   21  A    between atoms: _49  and  _51
REMARK   22  A    between atoms: _51  and  _52
REMARK   23  A    between atoms: _51  and  _54
REMARK   24  A    between atoms: _54  and  _55
REMARK   25  A    between atoms: _58  and  _60
REMARK   26  A    between atoms: _60  and  _61
REMARK   27  A    between atoms: _60  and  _63
REMARK   28  A    between atoms: _63  and  _64
REMARK   29  A    between atoms: _67  and  _69
REMARK   30  A    between atoms: _69  and  _70
REMARK   31  A    between atoms: _69  and  _72
REMARK   32  A    between atoms: _72  and  _73
REMARK   33  A    between atoms: _76  and  _78
REMARK   34  A    between atoms: _78  and  _79
REMARK   35  A    between atoms: _82  and  _84
REMARK   36  A    between atoms: _84  and  _85
REMARK   37  A    between atoms: _84  and  _87
REMARK   38  A    between atoms: _87  and  _88
REMARK   39  A    between atoms: _88  and  _89
REMARK   40  A    between atoms: _94  and  _96
REMARK   41  A    between atoms: _96  and  _97
REMARK   42  A    between atoms: _96  and  _99
REMARK   43  A    between atoms: _99  and  _100
REMARK   44  A    between atoms: _103  and  _105
REMARK   45  A    between atoms: _105  and  _106
REMARK   46  A    between atoms: _109  and  _111
REMARK   47  A    between atoms: _111  and  _112
REMARK   48  A    between atoms: _114  and  _116
REMARK   49  A    between atoms: _116  and  _117
REMARK   50  A    between atoms: _116  and  _119
REMARK   51  A    between atoms: _119  and  _120
REMARK   52  A    between atoms: _120  and  _121
REMARK   53  A    between atoms: _121  and  _122
REMARK   54  A    between atoms: _131  and  _133
REMARK   55  A    between atoms: _133  and  _134
REMARK   56  A    between atoms: _136  and  _138
REMARK   57  A    between atoms: _138  and  _139
REMARK   58  A    between atoms: _138  and  _141
REMARK   59  A    between atoms: _141  and  _142
REMARK   60  A    between atoms: _142  and  _143
REMARK   61  A    between atoms: _143  and  _144
REMARK   62  A    between atoms: _153  and  _155
REMARK   63  A    between atoms: _155  and  _156
REMARK   64  A    between atoms: _155  and  _158
REMARK   65  A    between atoms: _158  and  _159
REMARK   66  A    between atoms: _164  and  _166
REMARK   67  A    between atoms: _166  and  _167
REMARK   68  A    between atoms: _169  and  _171
REMARK   69  A    between atoms: _171  and  _172
REMARK   70  A    between atoms: _171  and  _174
REMARK   71  A    between atoms: _174  and  _175
REMARK   72  A    between atoms: _175  and  _176
REMARK   73  A    between atoms: _176  and  _177
REMARK   74  A    between atoms: _186  and  _188
REMARK   75  A    between atoms: _188  and  _189
REMARK   76  A    between atoms: _191  and  _193
REMARK   77  A    between atoms: _193  and  _194
REMARK   78  A    between atoms: _193  and  _196
REMARK   79  A    between atoms: _196  and  _197
REMARK   80  A    between atoms: _207  and  _209
REMARK   81  A    between atoms: _209  and  _210
REMARK   82  A    between atoms: _213  and  _215
REMARK   83  A    between atoms: _215  and  _216
REMARK   84  A    between atoms: _219  and  _221
REMARK   85  A    between atoms: _221  and  _222
REMARK   86  A    between atoms: _221  and  _224
REMARK   87  A    between atoms: _224  and  _225
REMARK   88  A    between atoms: _228  and  _230
REMARK   89  A    between atoms: _230  and  _231
REMARK   90  A    between atoms: _230  and  _233
REMARK   91  A    between atoms: _233  and  _234
REMARK   92  A    between atoms: _234  and  _235
REMARK   93  A    between atoms: _240  and  _242
REMARK   94  A    between atoms: _242  and  _243
REMARK   95  A    between atoms: _242  and  _245
REMARK   96  A    between atoms: _245  and  _246
REMARK   97  A    between atoms: _249  and  _251
REMARK   98  A    between atoms: _251  and  _252
REMARK   99  A    between atoms: _251  and  _254
REMARK  100  A    between atoms: _254  and  _255
REMARK  101  A    between atoms: _258  and  _260
REMARK  102  A    between atoms: _260  and  _261
REMARK  103  A    between atoms: _260  and  _263
REMARK  104  A    between atoms: _263  and  _264
REMARK  105  A    between atoms: _267  and  _269
REMARK  106  A    between atoms: _269  and  _270
REMARK  107  A    between atoms: _269  and  _272
REMARK  108  A    between atoms: _272  and  _273
REMARK  109  A    between atoms: _275  and  _277
REMARK  110  A    between atoms: _277  and  _278
REMARK  111  A    between atoms: _277  and  _280
REMARK  112  A    between atoms: _283  and  _285
REMARK  113  A    between atoms: _285  and  _286
REMARK  114  A    between atoms: _285  and  _288
REMARK  115  A    between atoms: _288  and  _289
REMARK  116  A    between atoms: _289  and  _290
REMARK  117  A    between atoms: _290  and  _291
REMARK  118  A    between atoms: _291  and  _292
REMARK  119  A    between atoms: _297  and  _298
REMARK  120  A    between atoms: _303  and  _305
REMARK  121  A    between atoms: _305  and  _306
REMARK  122  A    between atoms: _305  and  _308
REMARK  123  A    between atoms: _308  and  _309
REMARK  124  A    between atoms: _314  and  _316
REMARK  125  A    between atoms: _316  and  _317
REMARK  126  A    between atoms: _316  and  _319
REMARK  127  A    between atoms: _319  and  _320
REMARK  128  A    between atoms: _323  and  _325
REMARK  129  A    between atoms: _325  and  _326
REMARK  130  A    between atoms: _325  and  _328
REMARK  131  A    between atoms: _331  and  _333
REMARK  132  A    between atoms: _333  and  _334
REMARK  133  A    between atoms: _336  and  _338
REMARK  134  A    between atoms: _338  and  _339
REMARK  135  A    between atoms: _338  and  _341
REMARK  136  A    between atoms: _341  and  _342
REMARK  137  A    between atoms: _342  and  _343
REMARK  138  A    between atoms: _343  and  _344
REMARK  139  A    between atoms: _344  and  _345
REMARK  140  A    between atoms: _349  and  _351
REMARK  141  A    between atoms: _351  and  _352
REMARK  142  A    between atoms: _351  and  _354
REMARK  143  A    between atoms: _354  and  _355
REMARK  144  A    between atoms: _358  and  _360
REMARK  145  A    between atoms: _360  and  _361
REMARK  146  A    between atoms: _364  and  _366
REMARK  147  A    between atoms: _366  and  _367
REMARK  148  A    between atoms: _369  and  _371
REMARK  149  A    between atoms: _371  and  _372
REMARK  150  A    between atoms: _371  and  _374
REMARK  151  A    between atoms: _374  and  _375
REMARK  152  A    between atoms: _378  and  _380
REMARK  153  A    between atoms: _380  and  _381
REMARK  154  A    between atoms: _380  and  _383
REMARK  155  A    between atoms: _383  and  _384
REMARK  156  A    between atoms: _387  and  _389
REMARK  157  A    between atoms: _389  and  _390
REMARK  158  A    between atoms: _393  and  _395
REMARK  159  A    between atoms: _395  and  _396
REMARK  160  A    between atoms: _395  and  _398
REMARK  161  A    between atoms: _398  and  _399
REMARK  162  A    between atoms: _399  and  _400
REMARK  163  A    between atoms: _403  and  _405
REMARK  164  A    between atoms: _405  and  _406
REMARK  165  A    between atoms: _405  and  _408
REMARK  166  A    between atoms: _411  and  _413
REMARK  167  A    between atoms: _413  and  _414
REMARK  168  A    between atoms: _413  and  _416
REMARK  169  A    between atoms: _416  and  _417
REMARK  170  A    between atoms: _420  and  _422
REMARK  171  A    between atoms: _422  and  _423
REMARK  172  A    between atoms: _425  and  _427
REMARK  173  A    between atoms: _427  and  _428
REMARK  174  A    between atoms: _427  and  _430
REMARK  175  A    between atoms: _433  and  _435
REMARK  176  A    between atoms: _435  and  _436
REMARK  177  A    between atoms: _438  and  _440
REMARK  178  A    between atoms: _440  and  _441
REMARK  179  A    between atoms: _440  and  _443
REMARK  180  A    between atoms: _443  and  _444
REMARK  181  A    between atoms: _447  and  _449
REMARK  182  A    between atoms: _449  and  _450
REMARK  183  A    between atoms: _449  and  _452
REMARK  184  A    between atoms: _452  and  _453
REMARK  185  A    between atoms: _458  and  _460
REMARK  186  A    between atoms: _460  and  _461
REMARK  187  A    between atoms: _460  and  _463
REMARK  188  A    between atoms: _466  and  _468
REMARK  189  A    between atoms: _468  and  _469
REMARK  190  A    between atoms: _468  and  _471
REMARK  191  A    between atoms: _471  and  _472
REMARK  192  A    between atoms: _472  and  _473
REMARK  193  A    between atoms: _478  and  _480
REMARK  194  A    between atoms: _480  and  _481
REMARK  195  A    between atoms: _485  and  _486
REMARK  196  A    between atoms: _491  and  _493
REMARK  197  A    between atoms: _493  and  _494
REMARK  198  A    between atoms: _493  and  _496
REMARK  199  A    between atoms: _496  and  _497
REMARK  200  A    between atoms: _497  and  _498
REMARK  201  A    between atoms: _501  and  _503
REMARK  202  A    between atoms: _503  and  _504
REMARK  203  A    between atoms: _503  and  _506
REMARK  204  A    between atoms: _509  and  _511
REMARK  205  A    between atoms: _511  and  _512
REMARK  206  A    between atoms: _511  and  _514
REMARK  207  A    between atoms: _514  and  _515
REMARK  208  A    between atoms: _519  and  _520
REMARK  209  A    between atoms: _525  and  _527
REMARK  210  A    between atoms: _527  and  _528
REMARK  211  A    between atoms: _527  and  _530
REMARK  212  A    between atoms: _530  and  _531
REMARK  213  A    between atoms: _534  and  _536
REMARK  214  A    between atoms: _536  and  _537
REMARK  215  A    between atoms: _540  and  _542
REMARK  216  A    between atoms: _542  and  _543
REMARK  217  A    between atoms: _542  and  _545
REMARK  218  A    between atoms: _545  and  _546
REMARK  219  A    between atoms: _549  and  _551
REMARK  220  A    between atoms: _551  and  _552
REMARK  221  A    between atoms: _551  and  _554
REMARK  222  A    between atoms: _554  and  _555
REMARK  223  A    between atoms: _557  and  _559
REMARK  224  A    between atoms: _559  and  _560
REMARK  225  A    between atoms: _562  and  _564
REMARK  226  A    between atoms: _564  and  _565
REMARK  227  A    between atoms: _564  and  _567
REMARK  228  A    between atoms: _567  and  _568
REMARK  229  A    between atoms: _571  and  _573
REMARK  230  A    between atoms: _573  and  _574
REMARK  231  A    between atoms: _573  and  _576
REMARK                            x       y       z     vdW  Elec       q    Type
REMARK                         _______ _______ _______ _____ _____    ______ ____
ROOT
ATOM      1  O   HOH     1      -0.466   0.619  11.803  0.00  0.00    +0.000 OA
ENDROOT
TORSDOF 0
REMARK  Name = ../refined-set-2016/4xu0/4xu0_pocket.pdb
REMARK  231 active torsions:
REMARK  status: ('A' for Active; 'I' for Inactive)
REMARK    1  A    between atoms: _1  and  _3
REMARK    2  A    between atoms: _3  and  _4
REMARK    3  A    between atoms: _3  and  _6
REMARK    4  A    between atoms: _6  and  _7
REMARK    5  A    between atoms: _10  and  _12
REMARK    6  A    between atoms: _12  and  _13
REMARK    7  A    between atoms: _15  and  _17
REMARK    8  A    between atoms: _17  and  _18
REMARK    9  A    between atoms: _17  and  _20
REMARK   10  A    between atoms: _20  and  _21
REMARK   11  A    between atoms: _23  and  _25
REMARK   12  A    between atoms: _25  and  _26
REMARK   13  A    between atoms: _25  and  _28
REMARK   14  A    between atoms: _28  and  _29
REMARK   15  A    between atoms: _32  and  _34
REMARK   16  A    between atoms: _34  and  _35
REMARK   17  A    between atoms: _34  and  _37
REMARK   18  A    between atoms: _37  and  _38
REMARK   19  A    between atoms: _43  and  _45
REMARK   20  A    between atoms: _45  and  _46
REMARK   21  A    between atoms: _49  and  _51
REMARK   22  A    between atoms: _51  and  _52
REMARK   23  A    between atoms: _51  and  _54
REMARK   24  A    between atoms: _54  and  _55
REMARK   25  A    between atoms: _58  and  _60
REMARK   26  A    between atoms: _60  and  _61
REMARK   27  A    between atoms: _60  and  _63
REMARK   28  A    between atoms: _63  and  _64
REMARK   29  A    between atoms: _67  and  _69
REMARK   30  A    between atoms: _69  and  _70
REMARK   31  A    between atoms: _69  and  _72
REMARK   32  A    between atoms: _72  and  _73
REMARK   33  A    between atoms: _76  and  _78
REMARK   34  A    between atoms: _78  and  _79
REMARK   35  A    between atoms: _82  and  _84
REMARK   36  A    between atoms: _84  and  _85
REMARK   37  A    between atoms: _84  and  _87
REMARK   38  A    between atoms: _87  and  _88
REMARK   39  A    between atoms: _88  and  _89
REMARK   40  A    between atoms: _94  and  _96
REMARK   41  A    between atoms: _96  and  _97
REMARK   42  A    between atoms: _96  and  _99
REMARK   43  A    between atoms: _99  and  _100
REMARK   44  A    between atoms: _103  and  _105
REMARK   45  A    between atoms: _105  and  _106
REMARK   46  A    between atoms: _109  and  _111
REMARK   47  A    between atoms: _111  and  _112
REMARK   48  A    between atoms: _114  and  _116
REMARK   49  A    between atoms: _116  and  _117
REMARK   50  A    between atoms: _116  and  _119
REMARK   51  A    between atoms: _119  and  _120
REMARK   52  A    between atoms: _120  and  _121
REMARK   53  A    between atoms: _121  and  _122
REMARK   54  A    between atoms: _131  and  _133
REMARK   55  A    between atoms: _133  and  _134
REMARK   56  A    between atoms: _136  and  _138
REMARK   57  A    between atoms: _138  and  _139
REMARK   58  A    between atoms: _138  and  _141
REMARK   59  A    between atoms: _141  and  _142
REMARK   60  A    between atoms: _142  and  _143
REMARK   61  A    between atoms: _143  and  _144
REMARK   62  A    between atoms: _153  and  _155
REMARK   63  A    between atoms: _155  and  _156
REMARK   64  A    between atoms: _155  and  _158
REMARK   65  A    between atoms: _158  and  _159
REMARK   66  A    between atoms: _164  and  _166
REMARK   67  A    between atoms: _166  and  _167
REMARK   68  A    between atoms: _169  and  _171
REMARK   69  A    between atoms: _171  and  _172
REMARK   70  A    between atoms: _171  and  _174
REMARK   71  A    between atoms: _174  and  _175
REMARK   72  A    between atoms: _175  and  _176
REMARK   73  A    between atoms: _176  and  _177
REMARK   74  A    between atoms: _186  and  _188
REMARK   75  A    between atoms: _188  and  _189
REMARK   76  A    between atoms: _191  and  _193
REMARK   77  A    between atoms: _193  and  _194
REMARK   78  A    between atoms: _193  and  _196
REMARK   79  A    between atoms: _196  and  _197
REMARK   80  A    between atoms: _207  and  _209
REMARK   81  A    between atoms: _209  and  _210
REMARK   82  A    between atoms: _213  and  _215
REMARK   83  A    between atoms: _215  and  _216
REMARK   84  A    between atoms: _219  and  _221
REMARK   85  A    between atoms: _221  and  _222
REMARK   86  A    between atoms: _221  and  _224
REMARK   87  A    between atoms: _224  and  _225
REMARK   88  A    between atoms: _228  and  _230
REMARK   89  A    between atoms: _230  and  _231
REMARK   90  A    between atoms: _230  and  _233
REMARK   91  A    between atoms: _233  and  _234
REMARK   92  A    between atoms: _234  and  _235
REMARK   93  A    between atoms: _240  and  _242
REMARK   94  A    between atoms: _242  and  _243
REMARK   95  A    between atoms: _242  and  _245
REMARK   96  A    between atoms: _245  and  _246
REMARK   97  A    between atoms: _249  and  _251
REMARK   98  A    between atoms: _251  and  _252
REMARK   99  A    between atoms: _251  and  _254
REMARK  100  A    between atoms: _254  and  _255
REMARK  101  A    between atoms: _258  and  _260
REMARK  102  A    between atoms: _260  and  _261
REMARK  103  A    between atoms: _260  and  _263
REMARK  104  A    between atoms: _263  and  _264
REMARK  105  A    between atoms: _267  and  _269
REMARK  106  A    between atoms: _269  and  _270
REMARK  107  A    between atoms: _269  and  _272
REMARK  108  A    between atoms: _272  and  _273
REMARK  109  A    between atoms: _275  and  _277
REMARK  110  A    between atoms: _277  and  _278
REMARK  111  A    between atoms: _277  and  _280
REMARK  112  A    between atoms: _283  and  _285
REMARK  113  A    between atoms: _285  and  _286
REMARK  114  A    between atoms: _285  and  _288
REMARK  115  A    between atoms: _288  and  _289
REMARK  116  A    between atoms: _289  and  _290
REMARK  117  A    between atoms: _290  and  _291
REMARK  118  A    between atoms: _291  and  _292
REMARK  119  A    between atoms: _297  and  _298
REMARK  120  A    between atoms: _303  and  _305
REMARK  121  A    between atoms: _305  and  _306
REMARK  122  A    between atoms: _305  and  _308
REMARK  123  A    between atoms: _308  and  _309
REMARK  124  A    between atoms: _314  and  _316
REMARK  125  A    between atoms: _316  and  _317
REMARK  126  A    between atoms: _316  and  _319
REMARK  127  A    between atoms: _319  and  _320
REMARK  128  A    between atoms: _323  and  _325
REMARK  129  A    between atoms: _325  and  _326
REMARK  130  A    between atoms: _325  and  _328
REMARK  131  A    between atoms: _331  and  _333
REMARK  132  A    between atoms: _333  and  _334
REMARK  133  A    between atoms: _336  and  _338
REMARK  134  A    between atoms: _338  and  _339
REMARK  135  A    between atoms: _338  and  _341
REMARK  136  A    between atoms: _341  and  _342
REMARK  137  A    between atoms: _342  and  _343
REMARK  138  A    between atoms: _343  and  _344
REMARK  139  A    between atoms: _344  and  _345
REMARK  140  A    between atoms: _349  and  _351
REMARK  141  A    between atoms: _351  and  _352
REMARK  142  A    between atoms: _351  and  _354
REMARK  143  A    between atoms: _354  and  _355
REMARK  144  A    between atoms: _358  and  _360
REMARK  145  A    between atoms: _360  and  _361
REMARK  146  A    between atoms: _364  and  _366
REMARK  147  A    between atoms: _366  and  _367
REMARK  148  A    between atoms: _369  and  _371
REMARK  149  A    between atoms: _371  and  _372
REMARK  150  A    between atoms: _371  and  _374
REMARK  151  A    between atoms: _374  and  _375
REMARK  152  A    between atoms: _378  and  _380
REMARK  153  A    between atoms: _380  and  _381
REMARK  154  A    between atoms: _380  and  _383
REMARK  155  A    between atoms: _383  and  _384
REMARK  156  A    between atoms: _387  and  _389
REMARK  157  A    between atoms: _389  and  _390
REMARK  158  A    between atoms: _393  and  _395
REMARK  159  A    between atoms: _395  and  _396
REMARK  160  A    between atoms: _395  and  _398
REMARK  161  A    between atoms: _398  and  _399
REMARK  162  A    between atoms: _399  and  _400
REMARK  163  A    between atoms: _403  and  _405
REMARK  164  A    between atoms: _405  and  _406
REMARK  165  A    between atoms: _405  and  _408
REMARK  166  A    between atoms: _411  and  _413
REMARK  167  A    between atoms: _413  and  _414
REMARK  168  A    between atoms: _413  and  _416
REMARK  169  A    between atoms: _416  and  _417
REMARK  170  A    between atoms: _420  and  _422
REMARK  171  A    between atoms: _422  and  _423
REMARK  172  A    between atoms: _425  and  _427
REMARK  173  A    between atoms: _427  and  _428
REMARK  174  A    between atoms: _427  and  _430
REMARK  175  A    between atoms: _433  and  _435
REMARK  176  A    between atoms: _435  and  _436
REMARK  177  A    between atoms: _438  and  _440
REMARK  178  A    between atoms: _440  and  _441
REMARK  179  A    between atoms: _440  and  _443
REMARK  180  A    between atoms: _443  and  _444
REMARK  181  A    between atoms: _447  and  _449
REMARK  182  A    between atoms: _449  and  _450
REMARK  183  A    between atoms: _449  and  _452
REMARK  184  A    between atoms: _452  and  _453
REMARK  185  A    between atoms: _458  and  _460
REMARK  186  A    between atoms: _460  and  _461
REMARK  187  A    between atoms: _460  and  _463
REMARK  188  A    between atoms: _466  and  _468
REMARK  189  A    between atoms: _468  and  _469
REMARK  190  A    between atoms: _468  and  _471
REMARK  191  A    between atoms: _471  and  _472
REMARK  192  A    between atoms: _472  and  _473
REMARK  193  A    between atoms: _478  and  _480
REMARK  194  A    between atoms: _480  and  _481
REMARK  195  A    between atoms: _485  and  _486
REMARK  196  A    between atoms: _491  and  _493
REMARK  197  A    between atoms: _493  and  _494
REMARK  198  A    between atoms: _493  and  _496
REMARK  199  A    between atoms: _496  and  _497
REMARK  200  A    between atoms: _497  and  _498
REMARK  201  A    between atoms: _501  and  _503
REMARK  202  A    between atoms: _503  and  _504
REMARK  203  A    between atoms: _503  and  _506
REMARK  204  A    between atoms: _509  and  _511
REMARK  205  A    between atoms: _511  and  _512
REMARK  206  A    between atoms: _511  and  _514
REMARK  207  A    between atoms: _514  and  _515
REMARK  208  A    between atoms: _519  and  _520
REMARK  209  A    between atoms: _525  and  _527
REMARK  210  A    between atoms: _527  and  _528
REMARK  211  A    between atoms: _527  and  _530
REMARK  212  A    between atoms: _530  and  _531
REMARK  213  A    between atoms: _534  and  _536
REMARK  214  A    between atoms: _536  and  _537
REMARK  215  A    between atoms: _540  and  _542
REMARK  216  A    between atoms: _542  and  _543
REMARK  217  A    between atoms: _542  and  _545
REMARK  218  A    between atoms: _545  and  _546
REMARK  219  A    between atoms: _549  and  _551
REMARK  220  A    between atoms: _551  and  _552
REMARK  221  A    between atoms: _551  and  _554
REMARK  222  A    between atoms: _554  and  _555
REMARK  223  A    between atoms: _557  and  _559
REMARK  224  A    between atoms: _559  and  _560
REMARK  225  A    between atoms: _562  and  _564
REMARK  226  A    between atoms: _564  and  _565
REMARK  227  A    between atoms: _564  and  _567
REMARK  228  A    between atoms: _567  and  _568
REMARK  229  A    between atoms: _571  and  _573
REMARK  230  A    between atoms: _573  and  _574
REMARK  231  A    between atoms: _573  and  _576
REMARK                            x       y       z     vdW  Elec       q    Type
REMARK                         _______ _______ _______ _____ _____    ______ ____
ROOT
ATOM      1  O   HOH     1       1.355   0.106  13.747  0.00  0.00    +0.000 OA
ENDROOT
TORSDOF 0
REMARK  Name = ../refined-set-2016/4xu0/4xu0_pocket.pdb
REMARK  231 active torsions:
REMARK  status: ('A' for Active; 'I' for Inactive)
REMARK    1  A    between atoms: _1  and  _3
REMARK    2  A    between atoms: _3  and  _4
REMARK    3  A    between atoms: _3  and  _6
REMARK    4  A    between atoms: _6  and  _7
REMARK    5  A    between atoms: _10  and  _12
REMARK    6  A    between atoms: _12  and  _13
REMARK    7  A    between atoms: _15  and  _17
REMARK    8  A    between atoms: _17  and  _18
REMARK    9  A    between atoms: _17  and  _20
REMARK   10  A    between atoms: _20  and  _21
REMARK   11  A    between atoms: _23  and  _25
REMARK   12  A    between atoms: _25  and  _26
REMARK   13  A    between atoms: _25  and  _28
REMARK   14  A    between atoms: _28  and  _29
REMARK   15  A    between atoms: _32  and  _34
REMARK   16  A    between atoms: _34  and  _35
REMARK   17  A    between atoms: _34  and  _37
REMARK   18  A    between atoms: _37  and  _38
REMARK   19  A    between atoms: _43  and  _45
REMARK   20  A    between atoms: _45  and  _46
REMARK   21  A    between atoms: _49  and  _51
REMARK   22  A    between atoms: _51  and  _52
REMARK   23  A    between atoms: _51  and  _54
REMARK   24  A    between atoms: _54  and  _55
REMARK   25  A    between atoms: _58  and  _60
REMARK   26  A    between atoms: _60  and  _61
REMARK   27  A    between atoms: _60  and  _63
REMARK   28  A    between atoms: _63  and  _64
REMARK   29  A    between atoms: _67  and  _69
REMARK   30  A    between atoms: _69  and  _70
REMARK   31  A    between atoms: _69  and  _72
REMARK   32  A    between atoms: _72  and  _73
REMARK   33  A    between atoms: _76  and  _78
REMARK   34  A    between atoms: _78  and  _79
REMARK   35  A    between atoms: _82  and  _84
REMARK   36  A    between atoms: _84  and  _85
REMARK   37  A    between atoms: _84  and  _87
REMARK   38  A    between atoms: _87  and  _88
REMARK   39  A    between atoms: _88  and  _89
REMARK   40  A    between atoms: _94  and  _96
REMARK   41  A    between atoms: _96  and  _97
REMARK   42  A    between atoms: _96  and  _99
REMARK   43  A    between atoms: _99  and  _100
REMARK   44  A    between atoms: _103  and  _105
REMARK   45  A    between atoms: _105  and  _106
REMARK   46  A    between atoms: _109  and  _111
REMARK   47  A    between atoms: _111  and  _112
REMARK   48  A    between atoms: _114  and  _116
REMARK   49  A    between atoms: _116  and  _117
REMARK   50  A    between atoms: _116  and  _119
REMARK   51  A    between atoms: _119  and  _120
REMARK   52  A    between atoms: _120  and  _121
REMARK   53  A    between atoms: _121  and  _122
REMARK   54  A    between atoms: _131  and  _133
REMARK   55  A    between atoms: _133  and  _134
REMARK   56  A    between atoms: _136  and  _138
REMARK   57  A    between atoms: _138  and  _139
REMARK   58  A    between atoms: _138  and  _141
REMARK   59  A    between atoms: _141  and  _142
REMARK   60  A    between atoms: _142  and  _143
REMARK   61  A    between atoms: _143  and  _144
REMARK   62  A    between atoms: _153  and  _155
REMARK   63  A    between atoms: _155  and  _156
REMARK   64  A    between atoms: _155  and  _158
REMARK   65  A    between atoms: _158  and  _159
REMARK   66  A    between atoms: _164  and  _166
REMARK   67  A    between atoms: _166  and  _167
REMARK   68  A    between atoms: _169  and  _171
REMARK   69  A    between atoms: _171  and  _172
REMARK   70  A    between atoms: _171  and  _174
REMARK   71  A    between atoms: _174  and  _175
REMARK   72  A    between atoms: _175  and  _176
REMARK   73  A    between atoms: _176  and  _177
REMARK   74  A    between atoms: _186  and  _188
REMARK   75  A    between atoms: _188  and  _189
REMARK   76  A    between atoms: _191  and  _193
REMARK   77  A    between atoms: _193  and  _194
REMARK   78  A    between atoms: _193  and  _196
REMARK   79  A    between atoms: _196  and  _197
REMARK   80  A    between atoms: _207  and  _209
REMARK   81  A    between atoms: _209  and  _210
REMARK   82  A    between atoms: _213  and  _215
REMARK   83  A    between atoms: _215  and  _216
REMARK   84  A    between atoms: _219  and  _221
REMARK   85  A    between atoms: _221  and  _222
REMARK   86  A    between atoms: _221  and  _224
REMARK   87  A    between atoms: _224  and  _225
REMARK   88  A    between atoms: _228  and  _230
REMARK   89  A    between atoms: _230  and  _231
REMARK   90  A    between atoms: _230  and  _233
REMARK   91  A    between atoms: _233  and  _234
REMARK   92  A    between atoms: _234  and  _235
REMARK   93  A    between atoms: _240  and  _242
REMARK   94  A    between atoms: _242  and  _243
REMARK   95  A    between atoms: _242  and  _245
REMARK   96  A    between atoms: _245  and  _246
REMARK   97  A    between atoms: _249  and  _251
REMARK   98  A    between atoms: _251  and  _252
REMARK   99  A    between atoms: _251  and  _254
REMARK  100  A    between atoms: _254  and  _255
REMARK  101  A    between atoms: _258  and  _260
REMARK  102  A    between atoms: _260  and  _261
REMARK  103  A    between atoms: _260  and  _263
REMARK  104  A    between atoms: _263  and  _264
REMARK  105  A    between atoms: _267  and  _269
REMARK  106  A    between atoms: _269  and  _270
REMARK  107  A    between atoms: _269  and  _272
REMARK  108  A    between atoms: _272  and  _273
REMARK  109  A    between atoms: _275  and  _277
REMARK  110  A    between atoms: _277  and  _278
REMARK  111  A    between atoms: _277  and  _280
REMARK  112  A    between atoms: _283  and  _285
REMARK  113  A    between atoms: _285  and  _286
REMARK  114  A    between atoms: _285  and  _288
REMARK  115  A    between atoms: _288  and  _289
REMARK  116  A    between atoms: _289  and  _290
REMARK  117  A    between atoms: _290  and  _291
REMARK  118  A    between atoms: _291  and  _292
REMARK  119  A    between atoms: _297  and  _298
REMARK  120  A    between atoms: _303  and  _305
REMARK  121  A    between atoms: _305  and  _306
REMARK  122  A    between atoms: _305  and  _308
REMARK  123  A    between atoms: _308  and  _309
REMARK  124  A    between atoms: _314  and  _316
REMARK  125  A    between atoms: _316  and  _317
REMARK  126  A    between atoms: _316  and  _319
REMARK  127  A    between atoms: _319  and  _320
REMARK  128  A    between atoms: _323  and  _325
REMARK  129  A    between atoms: _325  and  _326
REMARK  130  A    between atoms: _325  and  _328
REMARK  131  A    between atoms: _331  and  _333
REMARK  132  A    between atoms: _333  and  _334
REMARK  133  A    between atoms: _336  and  _338
REMARK  134  A    between atoms: _338  and  _339
REMARK  135  A    between atoms: _338  and  _341
REMARK  136  A    between atoms: _341  and  _342
REMARK  137  A    between atoms: _342  and  _343
REMARK  138  A    between atoms: _343  and  _344
REMARK  139  A    between atoms: _344  and  _345
REMARK  140  A    between atoms: _349  and  _351
REMARK  141  A    between atoms: _351  and  _352
REMARK  142  A    between atoms: _351  and  _354
REMARK  143  A    between atoms: _354  and  _355
REMARK  144  A    between atoms: _358  and  _360
REMARK  145  A    between atoms: _360  and  _361
REMARK  146  A    between atoms: _364  and  _366
REMARK  147  A    between atoms: _366  and  _367
REMARK  148  A    between atoms: _369  and  _371
REMARK  149  A    between atoms: _371  and  _372
REMARK  150  A    between atoms: _371  and  _374
REMARK  151  A    between atoms: _374  and  _375
REMARK  152  A    between atoms: _378  and  _380
REMARK  153  A    between atoms: _380  and  _381
REMARK  154  A    between atoms: _380  and  _383
REMARK  155  A    between atoms: _383  and  _384
REMARK  156  A    between atoms: _387  and  _389
REMARK  157  A    between atoms: _389  and  _390
REMARK  158  A    between atoms: _393  and  _395
REMARK  159  A    between atoms: _395  and  _396
REMARK  160  A    between atoms: _395  and  _398
REMARK  161  A    between atoms: _398  and  _399
REMARK  162  A    between atoms: _399  and  _400
REMARK  163  A    between atoms: _403  and  _405
REMARK  164  A    between atoms: _405  and  _406
REMARK  165  A    between atoms: _405  and  _408
REMARK  166  A    between atoms: _411  and  _413
REMARK  167  A    between atoms: _413  and  _414
REMARK  168  A    between atoms: _413  and  _416
REMARK  169  A    between atoms: _416  and  _417
REMARK  170  A    between atoms: _420  and  _422
REMARK  171  A    between atoms: _422  and  _423
REMARK  172  A    between atoms: _425  and  _427
REMARK  173  A    between atoms: _427  and  _428
REMARK  174  A    between atoms: _427  and  _430
REMARK  175  A    between atoms: _433  and  _435
REMARK  176  A    between atoms: _435  and  _436
REMARK  177  A    between atoms: _438  and  _440
REMARK  178  A    between atoms: _440  and  _441
REMARK  179  A    between atoms: _440  and  _443
REMARK  180  A    between atoms: _443  and  _444
REMARK  181  A    between atoms: _447  and  _449
REMARK  182  A    between atoms: _449  and  _450
REMARK  183  A    between atoms: _449  and  _452
REMARK  184  A    between atoms: _452  and  _453
REMARK  185  A    between atoms: _458  and  _460
REMARK  186  A    between atoms: _460  and  _461
REMARK  187  A    between atoms: _460  and  _463
REMARK  188  A    between atoms: _466  and  _468
REMARK  189  A    between atoms: _468  and  _469
REMARK  190  A    between atoms: _468  and  _471
REMARK  191  A    between atoms: _471  and  _472
REMARK  192  A    between atoms: _472  and  _473
REMARK  193  A    between atoms: _478  and  _480
REMARK  194  A    between atoms: _480  and  _481
REMARK  195  A    between atoms: _485  and  _486
REMARK  196  A    between atoms: _491  and  _493
REMARK  197  A    between atoms: _493  and  _494
REMARK  198  A    between atoms: _493  and  _496
REMARK  199  A    between atoms: _496  and  _497
REMARK  200  A    between atoms: _497  and  _498
REMARK  201  A    between atoms: _501  and  _503
REMARK  202  A    between atoms: _503  and  _504
REMARK  203  A    between atoms: _503  and  _506
REMARK  204  A    between atoms: _509  and  _511
REMARK  205  A    between atoms: _511  and  _512
REMARK  206  A    between atoms: _511  and  _514
REMARK  207  A    between atoms: _514  and  _515
REMARK  208  A    between atoms: _519  and  _520
REMARK  209  A    between atoms: _525  and  _527
REMARK  210  A    between atoms: _527  and  _528
REMARK  211  A    between atoms: _527  and  _530
REMARK  212  A    between atoms: _530  and  _531
REMARK  213  A    between atoms: _534  and  _536
REMARK  214  A    between atoms: _536  and  _537
REMARK  215  A    between atoms: _540  and  _542
REMARK  216  A    between atoms: _542  and  _543
REMARK  217  A    between atoms: _542  and  _545
REMARK  218  A    between atoms: _545  and  _546
REMARK  219  A    between atoms: _549  and  _551
REMARK  220  A    between atoms: _551  and  _552
REMARK  221  A    between atoms: _551  and  _554
REMARK  222  A    between atoms: _554  and  _555
REMARK  223  A    between atoms: _557  and  _559
REMARK  224  A    between atoms: _559  and  _560
REMARK  225  A    between atoms: _562  and  _564
REMARK  226  A    between atoms: _564  and  _565
REMARK  227  A    between atoms: _564  and  _567
REMARK  228  A    between atoms: _567  and  _568
REMARK  229  A    between atoms: _571  and  _573
REMARK  230  A    between atoms: _573  and  _574
REMARK  231  A    between atoms: _573  and  _576
REMARK                            x       y       z     vdW  Elec       q    Type
REMARK                         _______ _______ _______ _____ _____    ______ ____
ROOT
ATOM      1  O   HOH     1       4.820  -1.058  11.432  0.00  0.00    +0.000 OA
ENDROOT
TORSDOF 0
REMARK  Name = ../refined-set-2016/4xu0/4xu0_pocket.pdb
REMARK  231 active torsions:
REMARK  status: ('A' for Active; 'I' for Inactive)
REMARK    1  A    between atoms: _1  and  _3
REMARK    2  A    between atoms: _3  and  _4
REMARK    3  A    between atoms: _3  and  _6
REMARK    4  A    between atoms: _6  and  _7
REMARK    5  A    between atoms: _10  and  _12
REMARK    6  A    between atoms: _12  and  _13
REMARK    7  A    between atoms: _15  and  _17
REMARK    8  A    between atoms: _17  and  _18
REMARK    9  A    between atoms: _17  and  _20
REMARK   10  A    between atoms: _20  and  _21
REMARK   11  A    between atoms: _23  and  _25
REMARK   12  A    between atoms: _25  and  _26
REMARK   13  A    between atoms: _25  and  _28
REMARK   14  A    between atoms: _28  and  _29
REMARK   15  A    between atoms: _32  and  _34
REMARK   16  A    between atoms: _34  and  _35
REMARK   17  A    between atoms: _34  and  _37
REMARK   18  A    between atoms: _37  and  _38
REMARK   19  A    between atoms: _43  and  _45
REMARK   20  A    between atoms: _45  and  _46
REMARK   21  A    between atoms: _49  and  _51
REMARK   22  A    between atoms: _51  and  _52
REMARK   23  A    between atoms: _51  and  _54
REMARK   24  A    between atoms: _54  and  _55
REMARK   25  A    between atoms: _58  and  _60
REMARK   26  A    between atoms: _60  and  _61
REMARK   27  A    between atoms: _60  and  _63
REMARK   28  A    between atoms: _63  and  _64
REMARK   29  A    between atoms: _67  and  _69
REMARK   30  A    between atoms: _69  and  _70
REMARK   31  A    between atoms: _69  and  _72
REMARK   32  A    between atoms: _72  and  _73
REMARK   33  A    between atoms: _76  and  _78
REMARK   34  A    between atoms: _78  and  _79
REMARK   35  A    between atoms: _82  and  _84
REMARK   36  A    between atoms: _84  and  _85
REMARK   37  A    between atoms: _84  and  _87
REMARK   38  A    between atoms: _87  and  _88
REMARK   39  A    between atoms: _88  and  _89
REMARK   40  A    between atoms: _94  and  _96
REMARK   41  A    between atoms: _96  and  _97
REMARK   42  A    between atoms: _96  and  _99
REMARK   43  A    between atoms: _99  and  _100
REMARK   44  A    between atoms: _103  and  _105
REMARK   45  A    between atoms: _105  and  _106
REMARK   46  A    between atoms: _109  and  _111
REMARK   47  A    between atoms: _111  and  _112
REMARK   48  A    between atoms: _114  and  _116
REMARK   49  A    between atoms: _116  and  _117
REMARK   50  A    between atoms: _116  and  _119
REMARK   51  A    between atoms: _119  and  _120
REMARK   52  A    between atoms: _120  and  _121
REMARK   53  A    between atoms: _121  and  _122
REMARK   54  A    between atoms: _131  and  _133
REMARK   55  A    between atoms: _133  and  _134
REMARK   56  A    between atoms: _136  and  _138
REMARK   57  A    between atoms: _138  and  _139
REMARK   58  A    between atoms: _138  and  _141
REMARK   59  A    between atoms: _141  and  _142
REMARK   60  A    between atoms: _142  and  _143
REMARK   61  A    between atoms: _143  and  _144
REMARK   62  A    between atoms: _153  and  _155
REMARK   63  A    between atoms: _155  and  _156
REMARK   64  A    between atoms: _155  and  _158
REMARK   65  A    between atoms: _158  and  _159
REMARK   66  A    between atoms: _164  and  _166
REMARK   67  A    between atoms: _166  and  _167
REMARK   68  A    between atoms: _169  and  _171
REMARK   69  A    between atoms: _171  and  _172
REMARK   70  A    between atoms: _171  and  _174
REMARK   71  A    between atoms: _174  and  _175
REMARK   72  A    between atoms: _175  and  _176
REMARK   73  A    between atoms: _176  and  _177
REMARK   74  A    between atoms: _186  and  _188
REMARK   75  A    between atoms: _188  and  _189
REMARK   76  A    between atoms: _191  and  _193
REMARK   77  A    between atoms: _193  and  _194
REMARK   78  A    between atoms: _193  and  _196
REMARK   79  A    between atoms: _196  and  _197
REMARK   80  A    between atoms: _207  and  _209
REMARK   81  A    between atoms: _209  and  _210
REMARK   82  A    between atoms: _213  and  _215
REMARK   83  A    between atoms: _215  and  _216
REMARK   84  A    between atoms: _219  and  _221
REMARK   85  A    between atoms: _221  and  _222
REMARK   86  A    between atoms: _221  and  _224
REMARK   87  A    between atoms: _224  and  _225
REMARK   88  A    between atoms: _228  and  _230
REMARK   89  A    between atoms: _230  and  _231
REMARK   90  A    between atoms: _230  and  _233
REMARK   91  A    between atoms: _233  and  _234
REMARK   92  A    between atoms: _234  and  _235
REMARK   93  A    between atoms: _240  and  _242
REMARK   94  A    between atoms: _242  and  _243
REMARK   95  A    between atoms: _242  and  _245
REMARK   96  A    between atoms: _245  and  _246
REMARK   97  A    between atoms: _249  and  _251
REMARK   98  A    between atoms: _251  and  _252
REMARK   99  A    between atoms: _251  and  _254
REMARK  100  A    between atoms: _254  and  _255
REMARK  101  A    between atoms: _258  and  _260
REMARK  102  A    between atoms: _260  and  _261
REMARK  103  A    between atoms: _260  and  _263
REMARK  104  A    between atoms: _263  and  _264
REMARK  105  A    between atoms: _267  and  _269
REMARK  106  A    between atoms: _269  and  _270
REMARK  107  A    between atoms: _269  and  _272
REMARK  108  A    between atoms: _272  and  _273
REMARK  109  A    between atoms: _275  and  _277
REMARK  110  A    between atoms: _277  and  _278
REMARK  111  A    between atoms: _277  and  _280
REMARK  112  A    between atoms: _283  and  _285
REMARK  113  A    between atoms: _285  and  _286
REMARK  114  A    between atoms: _285  and  _288
REMARK  115  A    between atoms: _288  and  _289
REMARK  116  A    between atoms: _289  and  _290
REMARK  117  A    between atoms: _290  and  _291
REMARK  118  A    between atoms: _291  and  _292
REMARK  119  A    between atoms: _297  and  _298
REMARK  120  A    between atoms: _303  and  _305
REMARK  121  A    between atoms: _305  and  _306
REMARK  122  A    between atoms: _305  and  _308
REMARK  123  A    between atoms: _308  and  _309
REMARK  124  A    between atoms: _314  and  _316
REMARK  125  A    between atoms: _316  and  _317
REMARK  126  A    between atoms: _316  and  _319
REMARK  127  A    between atoms: _319  and  _320
REMARK  128  A    between atoms: _323  and  _325
REMARK  129  A    between atoms: _325  and  _326
REMARK  130  A    between atoms: _325  and  _328
REMARK  131  A    between atoms: _331  and  _333
REMARK  132  A    between atoms: _333  and  _334
REMARK  133  A    between atoms: _336  and  _338
REMARK  134  A    between atoms: _338  and  _339
REMARK  135  A    between atoms: _338  and  _341
REMARK  136  A    between atoms: _341  and  _342
REMARK  137  A    between atoms: _342  and  _343
REMARK  138  A    between atoms: _343  and  _344
REMARK  139  A    between atoms: _344  and  _345
REMARK  140  A    between atoms: _349  and  _351
REMARK  141  A    between atoms: _351  and  _352
REMARK  142  A    between atoms: _351  and  _354
REMARK  143  A    between atoms: _354  and  _355
REMARK  144  A    between atoms: _358  and  _360
REMARK  145  A    between atoms: _360  and  _361
REMARK  146  A    between atoms: _364  and  _366
REMARK  147  A    between atoms: _366  and  _367
REMARK  148  A    between atoms: _369  and  _371
REMARK  149  A    between atoms: _371  and  _372
REMARK  150  A    between atoms: _371  and  _374
REMARK  151  A    between atoms: _374  and  _375
REMARK  152  A    between atoms: _378  and  _380
REMARK  153  A    between atoms: _380  and  _381
REMARK  154  A    between atoms: _380  and  _383
REMARK  155  A    between atoms: _383  and  _384
REMARK  156  A    between atoms: _387  and  _389
REMARK  157  A    between atoms: _389  and  _390
REMARK  158  A    between atoms: _393  and  _395
REMARK  159  A    between atoms: _395  and  _396
REMARK  160  A    between atoms: _395  and  _398
REMARK  161  A    between atoms: _398  and  _399
REMARK  162  A    between atoms: _399  and  _400
REMARK  163  A    between atoms: _403  and  _405
REMARK  164  A    between atoms: _405  and  _406
REMARK  165  A    between atoms: _405  and  _408
REMARK  166  A    between atoms: _411  and  _413
REMARK  167  A    between atoms: _413  and  _414
REMARK  168  A    between atoms: _413  and  _416
REMARK  169  A    between atoms: _416  and  _417
REMARK  170  A    between atoms: _420  and  _422
REMARK  171  A    between atoms: _422  and  _423
REMARK  172  A    between atoms: _425  and  _427
REMARK  173  A    between atoms: _427  and  _428
REMARK  174  A    between atoms: _427  and  _430
REMARK  175  A    between atoms: _433  and  _435
REMARK  176  A    between atoms: _435  and  _436
REMARK  177  A    between atoms: _438  and  _440
REMARK  178  A    between atoms: _440  and  _441
REMARK  179  A    between atoms: _440  and  _443
REMARK  180  A    between atoms: _443  and  _444
REMARK  181  A    between atoms: _447  and  _449
REMARK  182  A    between atoms: _449  and  _450
REMARK  183  A    between atoms: _449  and  _452
REMARK  184  A    between atoms: _452  and  _453
REMARK  185  A    between atoms: _458  and  _460
REMARK  186  A    between atoms: _460  and  _461
REMARK  187  A    between atoms: _460  and  _463
REMARK  188  A    between atoms: _466  and  _468
REMARK  189  A    between atoms: _468  and  _469
REMARK  190  A    between atoms: _468  and  _471
REMARK  191  A    between atoms: _471  and  _472
REMARK  192  A    between atoms: _472  and  _473
REMARK  193  A    between atoms: _478  and  _480
REMARK  194  A    between atoms: _480  and  _481
REMARK  195  A    between atoms: _485  and  _486
REMARK  196  A    between atoms: _491  and  _493
REMARK  197  A    between atoms: _493  and  _494
REMARK  198  A    between atoms: _493  and  _496
REMARK  199  A    between atoms: _496  and  _497
REMARK  200  A    between atoms: _497  and  _498
REMARK  201  A    between atoms: _501  and  _503
REMARK  202  A    between atoms: _503  and  _504
REMARK  203  A    between atoms: _503  and  _506
REMARK  204  A    between atoms: _509  and  _511
REMARK  205  A    between atoms: _511  and  _512
REMARK  206  A    between atoms: _511  and  _514
REMARK  207  A    between atoms: _514  and  _515
REMARK  208  A    between atoms: _519  and  _520
REMARK  209  A    between atoms: _525  and  _527
REMARK  210  A    between atoms: _527  and  _528
REMARK  211  A    between atoms: _527  and  _530
REMARK  212  A    between atoms: _530  and  _531
REMARK  213  A    between atoms: _534  and  _536
REMARK  214  A    between atoms: _536  and  _537
REMARK  215  A    between atoms: _540  and  _542
REMARK  216  A    between atoms: _542  and  _543
REMARK  217  A    between atoms: _542  and  _545
REMARK  218  A    between atoms: _545  and  _546
REMARK  219  A    between atoms: _549  and  _551
REMARK  220  A    between atoms: _551  and  _552
REMARK  221  A    between atoms: _551  and  _554
REMARK  222  A    between atoms: _554  and  _555
REMARK  223  A    between atoms: _557  and  _559
REMARK  224  A    between atoms: _559  and  _560
REMARK  225  A    between atoms: _562  and  _564
REMARK  226  A    between atoms: _564  and  _565
REMARK  227  A    between atoms: _564  and  _567
REMARK  228  A    between atoms: _567  and  _568
REMARK  229  A    between atoms: _571  and  _573
REMARK  230  A    between atoms: _573  and  _574
REMARK  231  A    between atoms: _573  and  _576
REMARK                            x       y       z     vdW  Elec       q    Type
REMARK                         _______ _______ _______ _____ _____    ______ ____
ROOT
ATOM      1  O   HOH     1       5.012  -8.391   8.316  0.00  0.00    +0.000 OA
ENDROOT
TORSDOF 0
REMARK  Name = ../refined-set-2016/4xu0/4xu0_pocket.pdb
REMARK  231 active torsions:
REMARK  status: ('A' for Active; 'I' for Inactive)
REMARK    1  A    between atoms: _1  and  _3
REMARK    2  A    between atoms: _3  and  _4
REMARK    3  A    between atoms: _3  and  _6
REMARK    4  A    between atoms: _6  and  _7
REMARK    5  A    between atoms: _10  and  _12
REMARK    6  A    between atoms: _12  and  _13
REMARK    7  A    between atoms: _15  and  _17
REMARK    8  A    between atoms: _17  and  _18
REMARK    9  A    between atoms: _17  and  _20
REMARK   10  A    between atoms: _20  and  _21
REMARK   11  A    between atoms: _23  and  _25
REMARK   12  A    between atoms: _25  and  _26
REMARK   13  A    between atoms: _25  and  _28
REMARK   14  A    between atoms: _28  and  _29
REMARK   15  A    between atoms: _32  and  _34
REMARK   16  A    between atoms: _34  and  _35
REMARK   17  A    between atoms: _34  and  _37
REMARK   18  A    between atoms: _37  and  _38
REMARK   19  A    between atoms: _43  and  _45
REMARK   20  A    between atoms: _45  and  _46
REMARK   21  A    between atoms: _49  and  _51
REMARK   22  A    between atoms: _51  and  _52
REMARK   23  A    between atoms: _51  and  _54
REMARK   24  A    between atoms: _54  and  _55
REMARK   25  A    between atoms: _58  and  _60
REMARK   26  A    between atoms: _60  and  _61
REMARK   27  A    between atoms: _60  and  _63
REMARK   28  A    between atoms: _63  and  _64
REMARK   29  A    between atoms: _67  and  _69
REMARK   30  A    between atoms: _69  and  _70
REMARK   31  A    between atoms: _69  and  _72
REMARK   32  A    between atoms: _72  and  _73
REMARK   33  A    between atoms: _76  and  _78
REMARK   34  A    between atoms: _78  and  _79
REMARK   35  A    between atoms: _82  and  _84
REMARK   36  A    between atoms: _84  and  _85
REMARK   37  A    between atoms: _84  and  _87
REMARK   38  A    between atoms: _87  and  _88
REMARK   39  A    between atoms: _88  and  _89
REMARK   40  A    between atoms: _94  and  _96
REMARK   41  A    between atoms: _96  and  _97
REMARK   42  A    between atoms: _96  and  _99
REMARK   43  A    between atoms: _99  and  _100
REMARK   44  A    between atoms: _103  and  _105
REMARK   45  A    between atoms: _105  and  _106
REMARK   46  A    between atoms: _109  and  _111
REMARK   47  A    between atoms: _111  and  _112
REMARK   48  A    between atoms: _114  and  _116
REMARK   49  A    between atoms: _116  and  _117
REMARK   50  A    between atoms: _116  and  _119
REMARK   51  A    between atoms: _119  and  _120
REMARK   52  A    between atoms: _120  and  _121
REMARK   53  A    between atoms: _121  and  _122
REMARK   54  A    between atoms: _131  and  _133
REMARK   55  A    between atoms: _133  and  _134
REMARK   56  A    between atoms: _136  and  _138
REMARK   57  A    between atoms: _138  and  _139
REMARK   58  A    between atoms: _138  and  _141
REMARK   59  A    between atoms: _141  and  _142
REMARK   60  A    between atoms: _142  and  _143
REMARK   61  A    between atoms: _143  and  _144
REMARK   62  A    between atoms: _153  and  _155
REMARK   63  A    between atoms: _155  and  _156
REMARK   64  A    between atoms: _155  and  _158
REMARK   65  A    between atoms: _158  and  _159
REMARK   66  A    between atoms: _164  and  _166
REMARK   67  A    between atoms: _166  and  _167
REMARK   68  A    between atoms: _169  and  _171
REMARK   69  A    between atoms: _171  and  _172
REMARK   70  A    between atoms: _171  and  _174
REMARK   71  A    between atoms: _174  and  _175
REMARK   72  A    between atoms: _175  and  _176
REMARK   73  A    between atoms: _176  and  _177
REMARK   74  A    between atoms: _186  and  _188
REMARK   75  A    between atoms: _188  and  _189
REMARK   76  A    between atoms: _191  and  _193
REMARK   77  A    between atoms: _193  and  _194
REMARK   78  A    between atoms: _193  and  _196
REMARK   79  A    between atoms: _196  and  _197
REMARK   80  A    between atoms: _207  and  _209
REMARK   81  A    between atoms: _209  and  _210
REMARK   82  A    between atoms: _213  and  _215
REMARK   83  A    between atoms: _215  and  _216
REMARK   84  A    between atoms: _219  and  _221
REMARK   85  A    between atoms: _221  and  _222
REMARK   86  A    between atoms: _221  and  _224
REMARK   87  A    between atoms: _224  and  _225
REMARK   88  A    between atoms: _228  and  _230
REMARK   89  A    between atoms: _230  and  _231
REMARK   90  A    between atoms: _230  and  _233
REMARK   91  A    between atoms: _233  and  _234
REMARK   92  A    between atoms: _234  and  _235
REMARK   93  A    between atoms: _240  and  _242
REMARK   94  A    between atoms: _242  and  _243
REMARK   95  A    between atoms: _242  and  _245
REMARK   96  A    between atoms: _245  and  _246
REMARK   97  A    between atoms: _249  and  _251
REMARK   98  A    between atoms: _251  and  _252
REMARK   99  A    between atoms: _251  and  _254
REMARK  100  A    between atoms: _254  and  _255
REMARK  101  A    between atoms: _258  and  _260
REMARK  102  A    between atoms: _260  and  _261
REMARK  103  A    between atoms: _260  and  _263
REMARK  104  A    between atoms: _263  and  _264
REMARK  105  A    between atoms: _267  and  _269
REMARK  106  A    between atoms: _269  and  _270
REMARK  107  A    between atoms: _269  and  _272
REMARK  108  A    between atoms: _272  and  _273
REMARK  109  A    between atoms: _275  and  _277
REMARK  110  A    between atoms: _277  and  _278
REMARK  111  A    between atoms: _277  and  _280
REMARK  112  A    between atoms: _283  and  _285
REMARK  113  A    between atoms: _285  and  _286
REMARK  114  A    between atoms: _285  and  _288
REMARK  115  A    between atoms: _288  and  _289
REMARK  116  A    between atoms: _289  and  _290
REMARK  117  A    between atoms: _290  and  _291
REMARK  118  A    between atoms: _291  and  _292
REMARK  119  A    between atoms: _297  and  _298
REMARK  120  A    between atoms: _303  and  _305
REMARK  121  A    between atoms: _305  and  _306
REMARK  122  A    between atoms: _305  and  _308
REMARK  123  A    between atoms: _308  and  _309
REMARK  124  A    between atoms: _314  and  _316
REMARK  125  A    between atoms: _316  and  _317
REMARK  126  A    between atoms: _316  and  _319
REMARK  127  A    between atoms: _319  and  _320
REMARK  128  A    between atoms: _323  and  _325
REMARK  129  A    between atoms: _325  and  _326
REMARK  130  A    between atoms: _325  and  _328
REMARK  131  A    between atoms: _331  and  _333
REMARK  132  A    between atoms: _333  and  _334
REMARK  133  A    between atoms: _336  and  _338
REMARK  134  A    between atoms: _338  and  _339
REMARK  135  A    between atoms: _338  and  _341
REMARK  136  A    between atoms: _341  and  _342
REMARK  137  A    between atoms: _342  and  _343
REMARK  138  A    between atoms: _343  and  _344
REMARK  139  A    between atoms: _344  and  _345
REMARK  140  A    between atoms: _349  and  _351
REMARK  141  A    between atoms: _351  and  _352
REMARK  142  A    between atoms: _351  and  _354
REMARK  143  A    between atoms: _354  and  _355
REMARK  144  A    between atoms: _358  and  _360
REMARK  145  A    between atoms: _360  and  _361
REMARK  146  A    between atoms: _364  and  _366
REMARK  147  A    between atoms: _366  and  _367
REMARK  148  A    between atoms: _369  and  _371
REMARK  149  A    between atoms: _371  and  _372
REMARK  150  A    between atoms: _371  and  _374
REMARK  151  A    between atoms: _374  and  _375
REMARK  152  A    between atoms: _378  and  _380
REMARK  153  A    between atoms: _380  and  _381
REMARK  154  A    between atoms: _380  and  _383
REMARK  155  A    between atoms: _383  and  _384
REMARK  156  A    between atoms: _387  and  _389
REMARK  157  A    between atoms: _389  and  _390
REMARK  158  A    between atoms: _393  and  _395
REMARK  159  A    between atoms: _395  and  _396
REMARK  160  A    between atoms: _395  and  _398
REMARK  161  A    between atoms: _398  and  _399
REMARK  162  A    between atoms: _399  and  _400
REMARK  163  A    between atoms: _403  and  _405
REMARK  164  A    between atoms: _405  and  _406
REMARK  165  A    between atoms: _405  and  _408
REMARK  166  A    between atoms: _411  and  _413
REMARK  167  A    between atoms: _413  and  _414
REMARK  168  A    between atoms: _413  and  _416
REMARK  169  A    between atoms: _416  and  _417
REMARK  170  A    between atoms: _420  and  _422
REMARK  171  A    between atoms: _422  and  _423
REMARK  172  A    between atoms: _425  and  _427
REMARK  173  A    between atoms: _427  and  _428
REMARK  174  A    between atoms: _427  and  _430
REMARK  175  A    between atoms: _433  and  _435
REMARK  176  A    between atoms: _435  and  _436
REMARK  177  A    between atoms: _438  and  _440
REMARK  178  A    between atoms: _440  and  _441
REMARK  179  A    between atoms: _440  and  _443
REMARK  180  A    between atoms: _443  and  _444
REMARK  181  A    between atoms: _447  and  _449
REMARK  182  A    between atoms: _449  and  _450
REMARK  183  A    between atoms: _449  and  _452
REMARK  184  A    between atoms: _452  and  _453
REMARK  185  A    between atoms: _458  and  _460
REMARK  186  A    between atoms: _460  and  _461
REMARK  187  A    between atoms: _460  and  _463
REMARK  188  A    between atoms: _466  and  _468
REMARK  189  A    between atoms: _468  and  _469
REMARK  190  A    between atoms: _468  and  _471
REMARK  191  A    between atoms: _471  and  _472
REMARK  192  A    between atoms: _472  and  _473
REMARK  193  A    between atoms: _478  and  _480
REMARK  194  A    between atoms: _480  and  _481
REMARK  195  A    between atoms: _485  and  _486
REMARK  196  A    between atoms: _491  and  _493
REMARK  197  A    between atoms: _493  and  _494
REMARK  198  A    between atoms: _493  and  _496
REMARK  199  A    between atoms: _496  and  _497
REMARK  200  A    between atoms: _497  and  _498
REMARK  201  A    between atoms: _501  and  _503
REMARK  202  A    between atoms: _503  and  _504
REMARK  203  A    between atoms: _503  and  _506
REMARK  204  A    between atoms: _509  and  _511
REMARK  205  A    between atoms: _511  and  _512
REMARK  206  A    between atoms: _511  and  _514
REMARK  207  A    between atoms: _514  and  _515
REMARK  208  A    between atoms: _519  and  _520
REMARK  209  A    between atoms: _525  and  _527
REMARK  210  A    between atoms: _527  and  _528
REMARK  211  A    between atoms: _527  and  _530
REMARK  212  A    between atoms: _530  and  _531
REMARK  213  A    between atoms: _534  and  _536
REMARK  214  A    between atoms: _536  and  _537
REMARK  215  A    between atoms: _540  and  _542
REMARK  216  A    between atoms: _542  and  _543
REMARK  217  A    between atoms: _542  and  _545
REMARK  218  A    between atoms: _545  and  _546
REMARK  219  A    between atoms: _549  and  _551
REMARK  220  A    between atoms: _551  and  _552
REMARK  221  A    between atoms: _551  and  _554
REMARK  222  A    between atoms: _554  and  _555
REMARK  223  A    between atoms: _557  and  _559
REMARK  224  A    between atoms: _559  and  _560
REMARK  225  A    between atoms: _562  and  _564
REMARK  226  A    between atoms: _564  and  _565
REMARK  227  A    between atoms: _564  and  _567
REMARK  228  A    between atoms: _567  and  _568
REMARK  229  A    between atoms: _571  and  _573
REMARK  230  A    between atoms: _573  and  _574
REMARK  231  A    between atoms: _573  and  _576
REMARK                            x       y       z     vdW  Elec       q    Type
REMARK                         _______ _______ _______ _____ _____    ______ ____
ROOT
ATOM      1  O   HOH     1       1.507   1.985  16.120  0.00  0.00    +0.000 OA
ENDROOT
TORSDOF 0
REMARK  Name = ../refined-set-2016/4xu0/4xu0_pocket.pdb
REMARK  231 active torsions:
REMARK  status: ('A' for Active; 'I' for Inactive)
REMARK    1  A    between atoms: _1  and  _3
REMARK    2  A    between atoms: _3  and  _4
REMARK    3  A    between atoms: _3  and  _6
REMARK    4  A    between atoms: _6  and  _7
REMARK    5  A    between atoms: _10  and  _12
REMARK    6  A    between atoms: _12  and  _13
REMARK    7  A    between atoms: _15  and  _17
REMARK    8  A    between atoms: _17  and  _18
REMARK    9  A    between atoms: _17  and  _20
REMARK   10  A    between atoms: _20  and  _21
REMARK   11  A    between atoms: _23  and  _25
REMARK   12  A    between atoms: _25  and  _26
REMARK   13  A    between atoms: _25  and  _28
REMARK   14  A    between atoms: _28  and  _29
REMARK   15  A    between atoms: _32  and  _34
REMARK   16  A    between atoms: _34  and  _35
REMARK   17  A    between atoms: _34  and  _37
REMARK   18  A    between atoms: _37  and  _38
REMARK   19  A    between atoms: _43  and  _45
REMARK   20  A    between atoms: _45  and  _46
REMARK   21  A    between atoms: _49  and  _51
REMARK   22  A    between atoms: _51  and  _52
REMARK   23  A    between atoms: _51  and  _54
REMARK   24  A    between atoms: _54  and  _55
REMARK   25  A    between atoms: _58  and  _60
REMARK   26  A    between atoms: _60  and  _61
REMARK   27  A    between atoms: _60  and  _63
REMARK   28  A    between atoms: _63  and  _64
REMARK   29  A    between atoms: _67  and  _69
REMARK   30  A    between atoms: _69  and  _70
REMARK   31  A    between atoms: _69  and  _72
REMARK   32  A    between atoms: _72  and  _73
REMARK   33  A    between atoms: _76  and  _78
REMARK   34  A    between atoms: _78  and  _79
REMARK   35  A    between atoms: _82  and  _84
REMARK   36  A    between atoms: _84  and  _85
REMARK   37  A    between atoms: _84  and  _87
REMARK   38  A    between atoms: _87  and  _88
REMARK   39  A    between atoms: _88  and  _89
REMARK   40  A    between atoms: _94  and  _96
REMARK   41  A    between atoms: _96  and  _97
REMARK   42  A    between atoms: _96  and  _99
REMARK   43  A    between atoms: _99  and  _100
REMARK   44  A    between atoms: _103  and  _105
REMARK   45  A    between atoms: _105  and  _106
REMARK   46  A    between atoms: _109  and  _111
REMARK   47  A    between atoms: _111  and  _112
REMARK   48  A    between atoms: _114  and  _116
REMARK   49  A    between atoms: _116  and  _117
REMARK   50  A    between atoms: _116  and  _119
REMARK   51  A    between atoms: _119  and  _120
REMARK   52  A    between atoms: _120  and  _121
REMARK   53  A    between atoms: _121  and  _122
REMARK   54  A    between atoms: _131  and  _133
REMARK   55  A    between atoms: _133  and  _134
REMARK   56  A    between atoms: _136  and  _138
REMARK   57  A    between atoms: _138  and  _139
REMARK   58  A    between atoms: _138  and  _141
REMARK   59  A    between atoms: _141  and  _142
REMARK   60  A    between atoms: _142  and  _143
REMARK   61  A    between atoms: _143  and  _144
REMARK   62  A    between atoms: _153  and  _155
REMARK   63  A    between atoms: _155  and  _156
REMARK   64  A    between atoms: _155  and  _158
REMARK   65  A    between atoms: _158  and  _159
REMARK   66  A    between atoms: _164  and  _166
REMARK   67  A    between atoms: _166  and  _167
REMARK   68  A    between atoms: _169  and  _171
REMARK   69  A    between atoms: _171  and  _172
REMARK   70  A    between atoms: _171  and  _174
REMARK   71  A    between atoms: _174  and  _175
REMARK   72  A    between atoms: _175  and  _176
REMARK   73  A    between atoms: _176  and  _177
REMARK   74  A    between atoms: _186  and  _188
REMARK   75  A    between atoms: _188  and  _189
REMARK   76  A    between atoms: _191  and  _193
REMARK   77  A    between atoms: _193  and  _194
REMARK   78  A    between atoms: _193  and  _196
REMARK   79  A    between atoms: _196  and  _197
REMARK   80  A    between atoms: _207  and  _209
REMARK   81  A    between atoms: _209  and  _210
REMARK   82  A    between atoms: _213  and  _215
REMARK   83  A    between atoms: _215  and  _216
REMARK   84  A    between atoms: _219  and  _221
REMARK   85  A    between atoms: _221  and  _222
REMARK   86  A    between atoms: _221  and  _224
REMARK   87  A    between atoms: _224  and  _225
REMARK   88  A    between atoms: _228  and  _230
REMARK   89  A    between atoms: _230  and  _231
REMARK   90  A    between atoms: _230  and  _233
REMARK   91  A    between atoms: _233  and  _234
REMARK   92  A    between atoms: _234  and  _235
REMARK   93  A    between atoms: _240  and  _242
REMARK   94  A    between atoms: _242  and  _243
REMARK   95  A    between atoms: _242  and  _245
REMARK   96  A    between atoms: _245  and  _246
REMARK   97  A    between atoms: _249  and  _251
REMARK   98  A    between atoms: _251  and  _252
REMARK   99  A    between atoms: _251  and  _254
REMARK  100  A    between atoms: _254  and  _255
REMARK  101  A    between atoms: _258  and  _260
REMARK  102  A    between atoms: _260  and  _261
REMARK  103  A    between atoms: _260  and  _263
REMARK  104  A    between atoms: _263  and  _264
REMARK  105  A    between atoms: _267  and  _269
REMARK  106  A    between atoms: _269  and  _270
REMARK  107  A    between atoms: _269  and  _272
REMARK  108  A    between atoms: _272  and  _273
REMARK  109  A    between atoms: _275  and  _277
REMARK  110  A    between atoms: _277  and  _278
REMARK  111  A    between atoms: _277  and  _280
REMARK  112  A    between atoms: _283  and  _285
REMARK  113  A    between atoms: _285  and  _286
REMARK  114  A    between atoms: _285  and  _288
REMARK  115  A    between atoms: _288  and  _289
REMARK  116  A    between atoms: _289  and  _290
REMARK  117  A    between atoms: _290  and  _291
REMARK  118  A    between atoms: _291  and  _292
REMARK  119  A    between atoms: _297  and  _298
REMARK  120  A    between atoms: _303  and  _305
REMARK  121  A    between atoms: _305  and  _306
REMARK  122  A    between atoms: _305  and  _308
REMARK  123  A    between atoms: _308  and  _309
REMARK  124  A    between atoms: _314  and  _316
REMARK  125  A    between atoms: _316  and  _317
REMARK  126  A    between atoms: _316  and  _319
REMARK  127  A    between atoms: _319  and  _320
REMARK  128  A    between atoms: _323  and  _325
REMARK  129  A    between atoms: _325  and  _326
REMARK  130  A    between atoms: _325  and  _328
REMARK  131  A    between atoms: _331  and  _333
REMARK  132  A    between atoms: _333  and  _334
REMARK  133  A    between atoms: _336  and  _338
REMARK  134  A    between atoms: _338  and  _339
REMARK  135  A    between atoms: _338  and  _341
REMARK  136  A    between atoms: _341  and  _342
REMARK  137  A    between atoms: _342  and  _343
REMARK  138  A    between atoms: _343  and  _344
REMARK  139  A    between atoms: _344  and  _345
REMARK  140  A    between atoms: _349  and  _351
REMARK  141  A    between atoms: _351  and  _352
REMARK  142  A    between atoms: _351  and  _354
REMARK  143  A    between atoms: _354  and  _355
REMARK  144  A    between atoms: _358  and  _360
REMARK  145  A    between atoms: _360  and  _361
REMARK  146  A    between atoms: _364  and  _366
REMARK  147  A    between atoms: _366  and  _367
REMARK  148  A    between atoms: _369  and  _371
REMARK  149  A    between atoms: _371  and  _372
REMARK  150  A    between atoms: _371  and  _374
REMARK  151  A    between atoms: _374  and  _375
REMARK  152  A    between atoms: _378  and  _380
REMARK  153  A    between atoms: _380  and  _381
REMARK  154  A    between atoms: _380  and  _383
REMARK  155  A    between atoms: _383  and  _384
REMARK  156  A    between atoms: _387  and  _389
REMARK  157  A    between atoms: _389  and  _390
REMARK  158  A    between atoms: _393  and  _395
REMARK  159  A    between atoms: _395  and  _396
REMARK  160  A    between atoms: _395  and  _398
REMARK  161  A    between atoms: _398  and  _399
REMARK  162  A    between atoms: _399  and  _400
REMARK  163  A    between atoms: _403  and  _405
REMARK  164  A    between atoms: _405  and  _406
REMARK  165  A    between atoms: _405  and  _408
REMARK  166  A    between atoms: _411  and  _413
REMARK  167  A    between atoms: _413  and  _414
REMARK  168  A    between atoms: _413  and  _416
REMARK  169  A    between atoms: _416  and  _417
REMARK  170  A    between atoms: _420  and  _422
REMARK  171  A    between atoms: _422  and  _423
REMARK  172  A    between atoms: _425  and  _427
REMARK  173  A    between atoms: _427  and  _428
REMARK  174  A    between atoms: _427  and  _430
REMARK  175  A    between atoms: _433  and  _435
REMARK  176  A    between atoms: _435  and  _436
REMARK  177  A    between atoms: _438  and  _440
REMARK  178  A    between atoms: _440  and  _441
REMARK  179  A    between atoms: _440  and  _443
REMARK  180  A    between atoms: _443  and  _444
REMARK  181  A    between atoms: _447  and  _449
REMARK  182  A    between atoms: _449  and  _450
REMARK  183  A    between atoms: _449  and  _452
REMARK  184  A    between atoms: _452  and  _453
REMARK  185  A    between atoms: _458  and  _460
REMARK  186  A    between atoms: _460  and  _461
REMARK  187  A    between atoms: _460  and  _463
REMARK  188  A    between atoms: _466  and  _468
REMARK  189  A    between atoms: _468  and  _469
REMARK  190  A    between atoms: _468  and  _471
REMARK  191  A    between atoms: _471  and  _472
REMARK  192  A    between atoms: _472  and  _473
REMARK  193  A    between atoms: _478  and  _480
REMARK  194  A    between atoms: _480  and  _481
REMARK  195  A    between atoms: _485  and  _486
REMARK  196  A    between atoms: _491  and  _493
REMARK  197  A    between atoms: _493  and  _494
REMARK  198  A    between atoms: _493  and  _496
REMARK  199  A    between atoms: _496  and  _497
REMARK  200  A    between atoms: _497  and  _498
REMARK  201  A    between atoms: _501  and  _503
REMARK  202  A    between atoms: _503  and  _504
REMARK  203  A    between atoms: _503  and  _506
REMARK  204  A    between atoms: _509  and  _511
REMARK  205  A    between atoms: _511  and  _512
REMARK  206  A    between atoms: _511  and  _514
REMARK  207  A    between atoms: _514  and  _515
REMARK  208  A    between atoms: _519  and  _520
REMARK  209  A    between atoms: _525  and  _527
REMARK  210  A    between atoms: _527  and  _528
REMARK  211  A    between atoms: _527  and  _530
REMARK  212  A    between atoms: _530  and  _531
REMARK  213  A    between atoms: _534  and  _536
REMARK  214  A    between atoms: _536  and  _537
REMARK  215  A    between atoms: _540  and  _542
REMARK  216  A    between atoms: _542  and  _543
REMARK  217  A    between atoms: _542  and  _545
REMARK  218  A    between atoms: _545  and  _546
REMARK  219  A    between atoms: _549  and  _551
REMARK  220  A    between atoms: _551  and  _552
REMARK  221  A    between atoms: _551  and  _554
REMARK  222  A    between atoms: _554  and  _555
REMARK  223  A    between atoms: _557  and  _559
REMARK  224  A    between atoms: _559  and  _560
REMARK  225  A    between atoms: _562  and  _564
REMARK  226  A    between atoms: _564  and  _565
REMARK  227  A    between atoms: _564  and  _567
REMARK  228  A    between atoms: _567  and  _568
REMARK  229  A    between atoms: _571  and  _573
REMARK  230  A    between atoms: _573  and  _574
REMARK  231  A    between atoms: _573  and  _576
REMARK                            x       y       z     vdW  Elec       q    Type
REMARK                         _______ _______ _______ _____ _____    ______ ____
ROOT
ATOM      1  O   HOH     1       4.179  -1.904   3.522  0.00  0.00    +0.000 OA
ENDROOT
TORSDOF 0
REMARK  Name = ../refined-set-2016/4xu0/4xu0_pocket.pdb
REMARK  231 active torsions:
REMARK  status: ('A' for Active; 'I' for Inactive)
REMARK    1  A    between atoms: _1  and  _3
REMARK    2  A    between atoms: _3  and  _4
REMARK    3  A    between atoms: _3  and  _6
REMARK    4  A    between atoms: _6  and  _7
REMARK    5  A    between atoms: _10  and  _12
REMARK    6  A    between atoms: _12  and  _13
REMARK    7  A    between atoms: _15  and  _17
REMARK    8  A    between atoms: _17  and  _18
REMARK    9  A    between atoms: _17  and  _20
REMARK   10  A    between atoms: _20  and  _21
REMARK   11  A    between atoms: _23  and  _25
REMARK   12  A    between atoms: _25  and  _26
REMARK   13  A    between atoms: _25  and  _28
REMARK   14  A    between atoms: _28  and  _29
REMARK   15  A    between atoms: _32  and  _34
REMARK   16  A    between atoms: _34  and  _35
REMARK   17  A    between atoms: _34  and  _37
REMARK   18  A    between atoms: _37  and  _38
REMARK   19  A    between atoms: _43  and  _45
REMARK   20  A    between atoms: _45  and  _46
REMARK   21  A    between atoms: _49  and  _51
REMARK   22  A    between atoms: _51  and  _52
REMARK   23  A    between atoms: _51  and  _54
REMARK   24  A    between atoms: _54  and  _55
REMARK   25  A    between atoms: _58  and  _60
REMARK   26  A    between atoms: _60  and  _61
REMARK   27  A    between atoms: _60  and  _63
REMARK   28  A    between atoms: _63  and  _64
REMARK   29  A    between atoms: _67  and  _69
REMARK   30  A    between atoms: _69  and  _70
REMARK   31  A    between atoms: _69  and  _72
REMARK   32  A    between atoms: _72  and  _73
REMARK   33  A    between atoms: _76  and  _78
REMARK   34  A    between atoms: _78  and  _79
REMARK   35  A    between atoms: _82  and  _84
REMARK   36  A    between atoms: _84  and  _85
REMARK   37  A    between atoms: _84  and  _87
REMARK   38  A    between atoms: _87  and  _88
REMARK   39  A    between atoms: _88  and  _89
REMARK   40  A    between atoms: _94  and  _96
REMARK   41  A    between atoms: _96  and  _97
REMARK   42  A    between atoms: _96  and  _99
REMARK   43  A    between atoms: _99  and  _100
REMARK   44  A    between atoms: _103  and  _105
REMARK   45  A    between atoms: _105  and  _106
REMARK   46  A    between atoms: _109  and  _111
REMARK   47  A    between atoms: _111  and  _112
REMARK   48  A    between atoms: _114  and  _116
REMARK   49  A    between atoms: _116  and  _117
REMARK   50  A    between atoms: _116  and  _119
REMARK   51  A    between atoms: _119  and  _120
REMARK   52  A    between atoms: _120  and  _121
REMARK   53  A    between atoms: _121  and  _122
REMARK   54  A    between atoms: _131  and  _133
REMARK   55  A    between atoms: _133  and  _134
REMARK   56  A    between atoms: _136  and  _138
REMARK   57  A    between atoms: _138  and  _139
REMARK   58  A    between atoms: _138  and  _141
REMARK   59  A    between atoms: _141  and  _142
REMARK   60  A    between atoms: _142  and  _143
REMARK   61  A    between atoms: _143  and  _144
REMARK   62  A    between atoms: _153  and  _155
REMARK   63  A    between atoms: _155  and  _156
REMARK   64  A    between atoms: _155  and  _158
REMARK   65  A    between atoms: _158  and  _159
REMARK   66  A    between atoms: _164  and  _166
REMARK   67  A    between atoms: _166  and  _167
REMARK   68  A    between atoms: _169  and  _171
REMARK   69  A    between atoms: _171  and  _172
REMARK   70  A    between atoms: _171  and  _174
REMARK   71  A    between atoms: _174  and  _175
REMARK   72  A    between atoms: _175  and  _176
REMARK   73  A    between atoms: _176  and  _177
REMARK   74  A    between atoms: _186  and  _188
REMARK   75  A    between atoms: _188  and  _189
REMARK   76  A    between atoms: _191  and  _193
REMARK   77  A    between atoms: _193  and  _194
REMARK   78  A    between atoms: _193  and  _196
REMARK   79  A    between atoms: _196  and  _197
REMARK   80  A    between atoms: _207  and  _209
REMARK   81  A    between atoms: _209  and  _210
REMARK   82  A    between atoms: _213  and  _215
REMARK   83  A    between atoms: _215  and  _216
REMARK   84  A    between atoms: _219  and  _221
REMARK   85  A    between atoms: _221  and  _222
REMARK   86  A    between atoms: _221  and  _224
REMARK   87  A    between atoms: _224  and  _225
REMARK   88  A    between atoms: _228  and  _230
REMARK   89  A    between atoms: _230  and  _231
REMARK   90  A    between atoms: _230  and  _233
REMARK   91  A    between atoms: _233  and  _234
REMARK   92  A    between atoms: _234  and  _235
REMARK   93  A    between atoms: _240  and  _242
REMARK   94  A    between atoms: _242  and  _243
REMARK   95  A    between atoms: _242  and  _245
REMARK   96  A    between atoms: _245  and  _246
REMARK   97  A    between atoms: _249  and  _251
REMARK   98  A    between atoms: _251  and  _252
REMARK   99  A    between atoms: _251  and  _254
REMARK  100  A    between atoms: _254  and  _255
REMARK  101  A    between atoms: _258  and  _260
REMARK  102  A    between atoms: _260  and  _261
REMARK  103  A    between atoms: _260  and  _263
REMARK  104  A    between atoms: _263  and  _264
REMARK  105  A    between atoms: _267  and  _269
REMARK  106  A    between atoms: _269  and  _270
REMARK  107  A    between atoms: _269  and  _272
REMARK  108  A    between atoms: _272  and  _273
REMARK  109  A    between atoms: _275  and  _277
REMARK  110  A    between atoms: _277  and  _278
REMARK  111  A    between atoms: _277  and  _280
REMARK  112  A    between atoms: _283  and  _285
REMARK  113  A    between atoms: _285  and  _286
REMARK  114  A    between atoms: _285  and  _288
REMARK  115  A    between atoms: _288  and  _289
REMARK  116  A    between atoms: _289  and  _290
REMARK  117  A    between atoms: _290  and  _291
REMARK  118  A    between atoms: _291  and  _292
REMARK  119  A    between atoms: _297  and  _298
REMARK  120  A    between atoms: _303  and  _305
REMARK  121  A    between atoms: _305  and  _306
REMARK  122  A    between atoms: _305  and  _308
REMARK  123  A    between atoms: _308  and  _309
REMARK  124  A    between atoms: _314  and  _316
REMARK  125  A    between atoms: _316  and  _317
REMARK  126  A    between atoms: _316  and  _319
REMARK  127  A    between atoms: _319  and  _320
REMARK  128  A    between atoms: _323  and  _325
REMARK  129  A    between atoms: _325  and  _326
REMARK  130  A    between atoms: _325  and  _328
REMARK  131  A    between atoms: _331  and  _333
REMARK  132  A    between atoms: _333  and  _334
REMARK  133  A    between atoms: _336  and  _338
REMARK  134  A    between atoms: _338  and  _339
REMARK  135  A    between atoms: _338  and  _341
REMARK  136  A    between atoms: _341  and  _342
REMARK  137  A    between atoms: _342  and  _343
REMARK  138  A    between atoms: _343  and  _344
REMARK  139  A    between atoms: _344  and  _345
REMARK  140  A    between atoms: _349  and  _351
REMARK  141  A    between atoms: _351  and  _352
REMARK  142  A    between atoms: _351  and  _354
REMARK  143  A    between atoms: _354  and  _355
REMARK  144  A    between atoms: _358  and  _360
REMARK  145  A    between atoms: _360  and  _361
REMARK  146  A    between atoms: _364  and  _366
REMARK  147  A    between atoms: _366  and  _367
REMARK  148  A    between atoms: _369  and  _371
REMARK  149  A    between atoms: _371  and  _372
REMARK  150  A    between atoms: _371  and  _374
REMARK  151  A    between atoms: _374  and  _375
REMARK  152  A    between atoms: _378  and  _380
REMARK  153  A    between atoms: _380  and  _381
REMARK  154  A    between atoms: _380  and  _383
REMARK  155  A    between atoms: _383  and  _384
REMARK  156  A    between atoms: _387  and  _389
REMARK  157  A    between atoms: _389  and  _390
REMARK  158  A    between atoms: _393  and  _395
REMARK  159  A    between atoms: _395  and  _396
REMARK  160  A    between atoms: _395  and  _398
REMARK  161  A    between atoms: _398  and  _399
REMARK  162  A    between atoms: _399  and  _400
REMARK  163  A    between atoms: _403  and  _405
REMARK  164  A    between atoms: _405  and  _406
REMARK  165  A    between atoms: _405  and  _408
REMARK  166  A    between atoms: _411  and  _413
REMARK  167  A    between atoms: _413  and  _414
REMARK  168  A    between atoms: _413  and  _416
REMARK  169  A    between atoms: _416  and  _417
REMARK  170  A    between atoms: _420  and  _422
REMARK  171  A    between atoms: _422  and  _423
REMARK  172  A    between atoms: _425  and  _427
REMARK  173  A    between atoms: _427  and  _428
REMARK  174  A    between atoms: _427  and  _430
REMARK  175  A    between atoms: _433  and  _435
REMARK  176  A    between atoms: _435  and  _436
REMARK  177  A    between atoms: _438  and  _440
REMARK  178  A    between atoms: _440  and  _441
REMARK  179  A    between atoms: _440  and  _443
REMARK  180  A    between atoms: _443  and  _444
REMARK  181  A    between atoms: _447  and  _449
REMARK  182  A    between atoms: _449  and  _450
REMARK  183  A    between atoms: _449  and  _452
REMARK  184  A    between atoms: _452  and  _453
REMARK  185  A    between atoms: _458  and  _460
REMARK  186  A    between atoms: _460  and  _461
REMARK  187  A    between atoms: _460  and  _463
REMARK  188  A    between atoms: _466  and  _468
REMARK  189  A    between atoms: _468  and  _469
REMARK  190  A    between atoms: _468  and  _471
REMARK  191  A    between atoms: _471  and  _472
REMARK  192  A    between atoms: _472  and  _473
REMARK  193  A    between atoms: _478  and  _480
REMARK  194  A    between atoms: _480  and  _481
REMARK  195  A    between atoms: _485  and  _486
REMARK  196  A    between atoms: _491  and  _493
REMARK  197  A    between atoms: _493  and  _494
REMARK  198  A    between atoms: _493  and  _496
REMARK  199  A    between atoms: _496  and  _497
REMARK  200  A    between atoms: _497  and  _498
REMARK  201  A    between atoms: _501  and  _503
REMARK  202  A    between atoms: _503  and  _504
REMARK  203  A    between atoms: _503  and  _506
REMARK  204  A    between atoms: _509  and  _511
REMARK  205  A    between atoms: _511  and  _512
REMARK  206  A    between atoms: _511  and  _514
REMARK  207  A    between atoms: _514  and  _515
REMARK  208  A    between atoms: _519  and  _520
REMARK  209  A    between atoms: _525  and  _527
REMARK  210  A    between atoms: _527  and  _528
REMARK  211  A    between atoms: _527  and  _530
REMARK  212  A    between atoms: _530  and  _531
REMARK  213  A    between atoms: _534  and  _536
REMARK  214  A    between atoms: _536  and  _537
REMARK  215  A    between atoms: _540  and  _542
REMARK  216  A    between atoms: _542  and  _543
REMARK  217  A    between atoms: _542  and  _545
REMARK  218  A    between atoms: _545  and  _546
REMARK  219  A    between atoms: _549  and  _551
REMARK  220  A    between atoms: _551  and  _552
REMARK  221  A    between atoms: _551  and  _554
REMARK  222  A    between atoms: _554  and  _555
REMARK  223  A    between atoms: _557  and  _559
REMARK  224  A    between atoms: _559  and  _560
REMARK  225  A    between atoms: _562  and  _564
REMARK  226  A    between atoms: _564  and  _565
REMARK  227  A    between atoms: _564  and  _567
REMARK  228  A    between atoms: _567  and  _568
REMARK  229  A    between atoms: _571  and  _573
REMARK  230  A    between atoms: _573  and  _574
REMARK  231  A    between atoms: _573  and  _576
REMARK                            x       y       z     vdW  Elec       q    Type
REMARK                         _______ _______ _______ _____ _____    ______ ____
ROOT
ATOM      1  O   HOH     1       4.507  -0.325   5.232  0.00  0.00    +0.000 OA
ENDROOT
TORSDOF 0
REMARK  Name = ../refined-set-2016/4xu0/4xu0_pocket.pdb
REMARK  231 active torsions:
REMARK  status: ('A' for Active; 'I' for Inactive)
REMARK    1  A    between atoms: _1  and  _3
REMARK    2  A    between atoms: _3  and  _4
REMARK    3  A    between atoms: _3  and  _6
REMARK    4  A    between atoms: _6  and  _7
REMARK    5  A    between atoms: _10  and  _12
REMARK    6  A    between atoms: _12  and  _13
REMARK    7  A    between atoms: _15  and  _17
REMARK    8  A    between atoms: _17  and  _18
REMARK    9  A    between atoms: _17  and  _20
REMARK   10  A    between atoms: _20  and  _21
REMARK   11  A    between atoms: _23  and  _25
REMARK   12  A    between atoms: _25  and  _26
REMARK   13  A    between atoms: _25  and  _28
REMARK   14  A    between atoms: _28  and  _29
REMARK   15  A    between atoms: _32  and  _34
REMARK   16  A    between atoms: _34  and  _35
REMARK   17  A    between atoms: _34  and  _37
REMARK   18  A    between atoms: _37  and  _38
REMARK   19  A    between atoms: _43  and  _45
REMARK   20  A    between atoms: _45  and  _46
REMARK   21  A    between atoms: _49  and  _51
REMARK   22  A    between atoms: _51  and  _52
REMARK   23  A    between atoms: _51  and  _54
REMARK   24  A    between atoms: _54  and  _55
REMARK   25  A    between atoms: _58  and  _60
REMARK   26  A    between atoms: _60  and  _61
REMARK   27  A    between atoms: _60  and  _63
REMARK   28  A    between atoms: _63  and  _64
REMARK   29  A    between atoms: _67  and  _69
REMARK   30  A    between atoms: _69  and  _70
REMARK   31  A    between atoms: _69  and  _72
REMARK   32  A    between atoms: _72  and  _73
REMARK   33  A    between atoms: _76  and  _78
REMARK   34  A    between atoms: _78  and  _79
REMARK   35  A    between atoms: _82  and  _84
REMARK   36  A    between atoms: _84  and  _85
REMARK   37  A    between atoms: _84  and  _87
REMARK   38  A    between atoms: _87  and  _88
REMARK   39  A    between atoms: _88  and  _89
REMARK   40  A    between atoms: _94  and  _96
REMARK   41  A    between atoms: _96  and  _97
REMARK   42  A    between atoms: _96  and  _99
REMARK   43  A    between atoms: _99  and  _100
REMARK   44  A    between atoms: _103  and  _105
REMARK   45  A    between atoms: _105  and  _106
REMARK   46  A    between atoms: _109  and  _111
REMARK   47  A    between atoms: _111  and  _112
REMARK   48  A    between atoms: _114  and  _116
REMARK   49  A    between atoms: _116  and  _117
REMARK   50  A    between atoms: _116  and  _119
REMARK   51  A    between atoms: _119  and  _120
REMARK   52  A    between atoms: _120  and  _121
REMARK   53  A    between atoms: _121  and  _122
REMARK   54  A    between atoms: _131  and  _133
REMARK   55  A    between atoms: _133  and  _134
REMARK   56  A    between atoms: _136  and  _138
REMARK   57  A    between atoms: _138  and  _139
REMARK   58  A    between atoms: _138  and  _141
REMARK   59  A    between atoms: _141  and  _142
REMARK   60  A    between atoms: _142  and  _143
REMARK   61  A    between atoms: _143  and  _144
REMARK   62  A    between atoms: _153  and  _155
REMARK   63  A    between atoms: _155  and  _156
REMARK   64  A    between atoms: _155  and  _158
REMARK   65  A    between atoms: _158  and  _159
REMARK   66  A    between atoms: _164  and  _166
REMARK   67  A    between atoms: _166  and  _167
REMARK   68  A    between atoms: _169  and  _171
REMARK   69  A    between atoms: _171  and  _172
REMARK   70  A    between atoms: _171  and  _174
REMARK   71  A    between atoms: _174  and  _175
REMARK   72  A    between atoms: _175  and  _176
REMARK   73  A    between atoms: _176  and  _177
REMARK   74  A    between atoms: _186  and  _188
REMARK   75  A    between atoms: _188  and  _189
REMARK   76  A    between atoms: _191  and  _193
REMARK   77  A    between atoms: _193  and  _194
REMARK   78  A    between atoms: _193  and  _196
REMARK   79  A    between atoms: _196  and  _197
REMARK   80  A    between atoms: _207  and  _209
REMARK   81  A    between atoms: _209  and  _210
REMARK   82  A    between atoms: _213  and  _215
REMARK   83  A    between atoms: _215  and  _216
REMARK   84  A    between atoms: _219  and  _221
REMARK   85  A    between atoms: _221  and  _222
REMARK   86  A    between atoms: _221  and  _224
REMARK   87  A    between atoms: _224  and  _225
REMARK   88  A    between atoms: _228  and  _230
REMARK   89  A    between atoms: _230  and  _231
REMARK   90  A    between atoms: _230  and  _233
REMARK   91  A    between atoms: _233  and  _234
REMARK   92  A    between atoms: _234  and  _235
REMARK   93  A    between atoms: _240  and  _242
REMARK   94  A    between atoms: _242  and  _243
REMARK   95  A    between atoms: _242  and  _245
REMARK   96  A    between atoms: _245  and  _246
REMARK   97  A    between atoms: _249  and  _251
REMARK   98  A    between atoms: _251  and  _252
REMARK   99  A    between atoms: _251  and  _254
REMARK  100  A    between atoms: _254  and  _255
REMARK  101  A    between atoms: _258  and  _260
REMARK  102  A    between atoms: _260  and  _261
REMARK  103  A    between atoms: _260  and  _263
REMARK  104  A    between atoms: _263  and  _264
REMARK  105  A    between atoms: _267  and  _269
REMARK  106  A    between atoms: _269  and  _270
REMARK  107  A    between atoms: _269  and  _272
REMARK  108  A    between atoms: _272  and  _273
REMARK  109  A    between atoms: _275  and  _277
REMARK  110  A    between atoms: _277  and  _278
REMARK  111  A    between atoms: _277  and  _280
REMARK  112  A    between atoms: _283  and  _285
REMARK  113  A    between atoms: _285  and  _286
REMARK  114  A    between atoms: _285  and  _288
REMARK  115  A    between atoms: _288  and  _289
REMARK  116  A    between atoms: _289  and  _290
REMARK  117  A    between atoms: _290  and  _291
REMARK  118  A    between atoms: _291  and  _292
REMARK  119  A    between atoms: _297  and  _298
REMARK  120  A    between atoms: _303  and  _305
REMARK  121  A    between atoms: _305  and  _306
REMARK  122  A    between atoms: _305  and  _308
REMARK  123  A    between atoms: _308  and  _309
REMARK  124  A    between atoms: _314  and  _316
REMARK  125  A    between atoms: _316  and  _317
REMARK  126  A    between atoms: _316  and  _319
REMARK  127  A    between atoms: _319  and  _320
REMARK  128  A    between atoms: _323  and  _325
REMARK  129  A    between atoms: _325  and  _326
REMARK  130  A    between atoms: _325  and  _328
REMARK  131  A    between atoms: _331  and  _333
REMARK  132  A    between atoms: _333  and  _334
REMARK  133  A    between atoms: _336  and  _338
REMARK  134  A    between atoms: _338  and  _339
REMARK  135  A    between atoms: _338  and  _341
REMARK  136  A    between atoms: _341  and  _342
REMARK  137  A    between atoms: _342  and  _343
REMARK  138  A    between atoms: _343  and  _344
REMARK  139  A    between atoms: _344  and  _345
REMARK  140  A    between atoms: _349  and  _351
REMARK  141  A    between atoms: _351  and  _352
REMARK  142  A    between atoms: _351  and  _354
REMARK  143  A    between atoms: _354  and  _355
REMARK  144  A    between atoms: _358  and  _360
REMARK  145  A    between atoms: _360  and  _361
REMARK  146  A    between atoms: _364  and  _366
REMARK  147  A    between atoms: _366  and  _367
REMARK  148  A    between atoms: _369  and  _371
REMARK  149  A    between atoms: _371  and  _372
REMARK  150  A    between atoms: _371  and  _374
REMARK  151  A    between atoms: _374  and  _375
REMARK  152  A    between atoms: _378  and  _380
REMARK  153  A    between atoms: _380  and  _381
REMARK  154  A    between atoms: _380  and  _383
REMARK  155  A    between atoms: _383  and  _384
REMARK  156  A    between atoms: _387  and  _389
REMARK  157  A    between atoms: _389  and  _390
REMARK  158  A    between atoms: _393  and  _395
REMARK  159  A    between atoms: _395  and  _396
REMARK  160  A    between atoms: _395  and  _398
REMARK  161  A    between atoms: _398  and  _399
REMARK  162  A    between atoms: _399  and  _400
REMARK  163  A    between atoms: _403  and  _405
REMARK  164  A    between atoms: _405  and  _406
REMARK  165  A    between atoms: _405  and  _408
REMARK  166  A    between atoms: _411  and  _413
REMARK  167  A    between atoms: _413  and  _414
REMARK  168  A    between atoms: _413  and  _416
REMARK  169  A    between atoms: _416  and  _417
REMARK  170  A    between atoms: _420  and  _422
REMARK  171  A    between atoms: _422  and  _423
REMARK  172  A    between atoms: _425  and  _427
REMARK  173  A    between atoms: _427  and  _428
REMARK  174  A    between atoms: _427  and  _430
REMARK  175  A    between atoms: _433  and  _435
REMARK  176  A    between atoms: _435  and  _436
REMARK  177  A    between atoms: _438  and  _440
REMARK  178  A    between atoms: _440  and  _441
REMARK  179  A    between atoms: _440  and  _443
REMARK  180  A    between atoms: _443  and  _444
REMARK  181  A    between atoms: _447  and  _449
REMARK  182  A    between atoms: _449  and  _450
REMARK  183  A    between atoms: _449  and  _452
REMARK  184  A    between atoms: _452  and  _453
REMARK  185  A    between atoms: _458  and  _460
REMARK  186  A    between atoms: _460  and  _461
REMARK  187  A    between atoms: _460  and  _463
REMARK  188  A    between atoms: _466  and  _468
REMARK  189  A    between atoms: _468  and  _469
REMARK  190  A    between atoms: _468  and  _471
REMARK  191  A    between atoms: _471  and  _472
REMARK  192  A    between atoms: _472  and  _473
REMARK  193  A    between atoms: _478  and  _480
REMARK  194  A    between atoms: _480  and  _481
REMARK  195  A    between atoms: _485  and  _486
REMARK  196  A    between atoms: _491  and  _493
REMARK  197  A    between atoms: _493  and  _494
REMARK  198  A    between atoms: _493  and  _496
REMARK  199  A    between atoms: _496  and  _497
REMARK  200  A    between atoms: _497  and  _498
REMARK  201  A    between atoms: _501  and  _503
REMARK  202  A    between atoms: _503  and  _504
REMARK  203  A    between atoms: _503  and  _506
REMARK  204  A    between atoms: _509  and  _511
REMARK  205  A    between atoms: _511  and  _512
REMARK  206  A    between atoms: _511  and  _514
REMARK  207  A    between atoms: _514  and  _515
REMARK  208  A    between atoms: _519  and  _520
REMARK  209  A    between atoms: _525  and  _527
REMARK  210  A    between atoms: _527  and  _528
REMARK  211  A    between atoms: _527  and  _530
REMARK  212  A    between atoms: _530  and  _531
REMARK  213  A    between atoms: _534  and  _536
REMARK  214  A    between atoms: _536  and  _537
REMARK  215  A    between atoms: _540  and  _542
REMARK  216  A    between atoms: _542  and  _543
REMARK  217  A    between atoms: _542  and  _545
REMARK  218  A    between atoms: _545  and  _546
REMARK  219  A    between atoms: _549  and  _551
REMARK  220  A    between atoms: _551  and  _552
REMARK  221  A    between atoms: _551  and  _554
REMARK  222  A    between atoms: _554  and  _555
REMARK  223  A    between atoms: _557  and  _559
REMARK  224  A    between atoms: _559  and  _560
REMARK  225  A    between atoms: _562  and  _564
REMARK  226  A    between atoms: _564  and  _565
REMARK  227  A    between atoms: _564  and  _567
REMARK  228  A    between atoms: _567  and  _568
REMARK  229  A    between atoms: _571  and  _573
REMARK  230  A    between atoms: _573  and  _574
REMARK  231  A    between atoms: _573  and  _576
REMARK                            x       y       z     vdW  Elec       q    Type
REMARK                         _______ _______ _______ _____ _____    ______ ____
ROOT
ATOM      1  O   HOH     1     -10.237  -1.637   4.970  0.00  0.00    +0.000 OA
ENDROOT
TORSDOF 0
REMARK  Name = ../refined-set-2016/4xu0/4xu0_pocket.pdb
REMARK  231 active torsions:
REMARK  status: ('A' for Active; 'I' for Inactive)
REMARK    1  A    between atoms: _1  and  _3
REMARK    2  A    between atoms: _3  and  _4
REMARK    3  A    between atoms: _3  and  _6
REMARK    4  A    between atoms: _6  and  _7
REMARK    5  A    between atoms: _10  and  _12
REMARK    6  A    between atoms: _12  and  _13
REMARK    7  A    between atoms: _15  and  _17
REMARK    8  A    between atoms: _17  and  _18
REMARK    9  A    between atoms: _17  and  _20
REMARK   10  A    between atoms: _20  and  _21
REMARK   11  A    between atoms: _23  and  _25
REMARK   12  A    between atoms: _25  and  _26
REMARK   13  A    between atoms: _25  and  _28
REMARK   14  A    between atoms: _28  and  _29
REMARK   15  A    between atoms: _32  and  _34
REMARK   16  A    between atoms: _34  and  _35
REMARK   17  A    between atoms: _34  and  _37
REMARK   18  A    between atoms: _37  and  _38
REMARK   19  A    between atoms: _43  and  _45
REMARK   20  A    between atoms: _45  and  _46
REMARK   21  A    between atoms: _49  and  _51
REMARK   22  A    between atoms: _51  and  _52
REMARK   23  A    between atoms: _51  and  _54
REMARK   24  A    between atoms: _54  and  _55
REMARK   25  A    between atoms: _58  and  _60
REMARK   26  A    between atoms: _60  and  _61
REMARK   27  A    between atoms: _60  and  _63
REMARK   28  A    between atoms: _63  and  _64
REMARK   29  A    between atoms: _67  and  _69
REMARK   30  A    between atoms: _69  and  _70
REMARK   31  A    between atoms: _69  and  _72
REMARK   32  A    between atoms: _72  and  _73
REMARK   33  A    between atoms: _76  and  _78
REMARK   34  A    between atoms: _78  and  _79
REMARK   35  A    between atoms: _82  and  _84
REMARK   36  A    between atoms: _84  and  _85
REMARK   37  A    between atoms: _84  and  _87
REMARK   38  A    between atoms: _87  and  _88
REMARK   39  A    between atoms: _88  and  _89
REMARK   40  A    between atoms: _94  and  _96
REMARK   41  A    between atoms: _96  and  _97
REMARK   42  A    between atoms: _96  and  _99
REMARK   43  A    between atoms: _99  and  _100
REMARK   44  A    between atoms: _103  and  _105
REMARK   45  A    between atoms: _105  and  _106
REMARK   46  A    between atoms: _109  and  _111
REMARK   47  A    between atoms: _111  and  _112
REMARK   48  A    between atoms: _114  and  _116
REMARK   49  A    between atoms: _116  and  _117
REMARK   50  A    between atoms: _116  and  _119
REMARK   51  A    between atoms: _119  and  _120
REMARK   52  A    between atoms: _120  and  _121
REMARK   53  A    between atoms: _121  and  _122
REMARK   54  A    between atoms: _131  and  _133
REMARK   55  A    between atoms: _133  and  _134
REMARK   56  A    between atoms: _136  and  _138
REMARK   57  A    between atoms: _138  and  _139
REMARK   58  A    between atoms: _138  and  _141
REMARK   59  A    between atoms: _141  and  _142
REMARK   60  A    between atoms: _142  and  _143
REMARK   61  A    between atoms: _143  and  _144
REMARK   62  A    between atoms: _153  and  _155
REMARK   63  A    between atoms: _155  and  _156
REMARK   64  A    between atoms: _155  and  _158
REMARK   65  A    between atoms: _158  and  _159
REMARK   66  A    between atoms: _164  and  _166
REMARK   67  A    between atoms: _166  and  _167
REMARK   68  A    between atoms: _169  and  _171
REMARK   69  A    between atoms: _171  and  _172
REMARK   70  A    between atoms: _171  and  _174
REMARK   71  A    between atoms: _174  and  _175
REMARK   72  A    between atoms: _175  and  _176
REMARK   73  A    between atoms: _176  and  _177
REMARK   74  A    between atoms: _186  and  _188
REMARK   75  A    between atoms: _188  and  _189
REMARK   76  A    between atoms: _191  and  _193
REMARK   77  A    between atoms: _193  and  _194
REMARK   78  A    between atoms: _193  and  _196
REMARK   79  A    between atoms: _196  and  _197
REMARK   80  A    between atoms: _207  and  _209
REMARK   81  A    between atoms: _209  and  _210
REMARK   82  A    between atoms: _213  and  _215
REMARK   83  A    between atoms: _215  and  _216
REMARK   84  A    between atoms: _219  and  _221
REMARK   85  A    between atoms: _221  and  _222
REMARK   86  A    between atoms: _221  and  _224
REMARK   87  A    between atoms: _224  and  _225
REMARK   88  A    between atoms: _228  and  _230
REMARK   89  A    between atoms: _230  and  _231
REMARK   90  A    between atoms: _230  and  _233
REMARK   91  A    between atoms: _233  and  _234
REMARK   92  A    between atoms: _234  and  _235
REMARK   93  A    between atoms: _240  and  _242
REMARK   94  A    between atoms: _242  and  _243
REMARK   95  A    between atoms: _242  and  _245
REMARK   96  A    between atoms: _245  and  _246
REMARK   97  A    between atoms: _249  and  _251
REMARK   98  A    between atoms: _251  and  _252
REMARK   99  A    between atoms: _251  and  _254
REMARK  100  A    between atoms: _254  and  _255
REMARK  101  A    between atoms: _258  and  _260
REMARK  102  A    between atoms: _260  and  _261
REMARK  103  A    between atoms: _260  and  _263
REMARK  104  A    between atoms: _263  and  _264
REMARK  105  A    between atoms: _267  and  _269
REMARK  106  A    between atoms: _269  and  _270
REMARK  107  A    between atoms: _269  and  _272
REMARK  108  A    between atoms: _272  and  _273
REMARK  109  A    between atoms: _275  and  _277
REMARK  110  A    between atoms: _277  and  _278
REMARK  111  A    between atoms: _277  and  _280
REMARK  112  A    between atoms: _283  and  _285
REMARK  113  A    between atoms: _285  and  _286
REMARK  114  A    between atoms: _285  and  _288
REMARK  115  A    between atoms: _288  and  _289
REMARK  116  A    between atoms: _289  and  _290
REMARK  117  A    between atoms: _290  and  _291
REMARK  118  A    between atoms: _291  and  _292
REMARK  119  A    between atoms: _297  and  _298
REMARK  120  A    between atoms: _303  and  _305
REMARK  121  A    between atoms: _305  and  _306
REMARK  122  A    between atoms: _305  and  _308
REMARK  123  A    between atoms: _308  and  _309
REMARK  124  A    between atoms: _314  and  _316
REMARK  125  A    between atoms: _316  and  _317
REMARK  126  A    between atoms: _316  and  _319
REMARK  127  A    between atoms: _319  and  _320
REMARK  128  A    between atoms: _323  and  _325
REMARK  129  A    between atoms: _325  and  _326
REMARK  130  A    between atoms: _325  and  _328
REMARK  131  A    between atoms: _331  and  _333
REMARK  132  A    between atoms: _333  and  _334
REMARK  133  A    between atoms: _336  and  _338
REMARK  134  A    between atoms: _338  and  _339
REMARK  135  A    between atoms: _338  and  _341
REMARK  136  A    between atoms: _341  and  _342
REMARK  137  A    between atoms: _342  and  _343
REMARK  138  A    between atoms: _343  and  _344
REMARK  139  A    between atoms: _344  and  _345
REMARK  140  A    between atoms: _349  and  _351
REMARK  141  A    between atoms: _351  and  _352
REMARK  142  A    between atoms: _351  and  _354
REMARK  143  A    between atoms: _354  and  _355
REMARK  144  A    between atoms: _358  and  _360
REMARK  145  A    between atoms: _360  and  _361
REMARK  146  A    between atoms: _364  and  _366
REMARK  147  A    between atoms: _366  and  _367
REMARK  148  A    between atoms: _369  and  _371
REMARK  149  A    between atoms: _371  and  _372
REMARK  150  A    between atoms: _371  and  _374
REMARK  151  A    between atoms: _374  and  _375
REMARK  152  A    between atoms: _378  and  _380
REMARK  153  A    between atoms: _380  and  _381
REMARK  154  A    between atoms: _380  and  _383
REMARK  155  A    between atoms: _383  and  _384
REMARK  156  A    between atoms: _387  and  _389
REMARK  157  A    between atoms: _389  and  _390
REMARK  158  A    between atoms: _393  and  _395
REMARK  159  A    between atoms: _395  and  _396
REMARK  160  A    between atoms: _395  and  _398
REMARK  161  A    between atoms: _398  and  _399
REMARK  162  A    between atoms: _399  and  _400
REMARK  163  A    between atoms: _403  and  _405
REMARK  164  A    between atoms: _405  and  _406
REMARK  165  A    between atoms: _405  and  _408
REMARK  166  A    between atoms: _411  and  _413
REMARK  167  A    between atoms: _413  and  _414
REMARK  168  A    between atoms: _413  and  _416
REMARK  169  A    between atoms: _416  and  _417
REMARK  170  A    between atoms: _420  and  _422
REMARK  171  A    between atoms: _422  and  _423
REMARK  172  A    between atoms: _425  and  _427
REMARK  173  A    between atoms: _427  and  _428
REMARK  174  A    between atoms: _427  and  _430
REMARK  175  A    between atoms: _433  and  _435
REMARK  176  A    between atoms: _435  and  _436
REMARK  177  A    between atoms: _438  and  _440
REMARK  178  A    between atoms: _440  and  _441
REMARK  179  A    between atoms: _440  and  _443
REMARK  180  A    between atoms: _443  and  _444
REMARK  181  A    between atoms: _447  and  _449
REMARK  182  A    between atoms: _449  and  _450
REMARK  183  A    between atoms: _449  and  _452
REMARK  184  A    between atoms: _452  and  _453
REMARK  185  A    between atoms: _458  and  _460
REMARK  186  A    between atoms: _460  and  _461
REMARK  187  A    between atoms: _460  and  _463
REMARK  188  A    between atoms: _466  and  _468
REMARK  189  A    between atoms: _468  and  _469
REMARK  190  A    between atoms: _468  and  _471
REMARK  191  A    between atoms: _471  and  _472
REMARK  192  A    between atoms: _472  and  _473
REMARK  193  A    between atoms: _478  and  _480
REMARK  194  A    between atoms: _480  and  _481
REMARK  195  A    between atoms: _485  and  _486
REMARK  196  A    between atoms: _491  and  _493
REMARK  197  A    between atoms: _493  and  _494
REMARK  198  A    between atoms: _493  and  _496
REMARK  199  A    between atoms: _496  and  _497
REMARK  200  A    between atoms: _497  and  _498
REMARK  201  A    between atoms: _501  and  _503
REMARK  202  A    between atoms: _503  and  _504
REMARK  203  A    between atoms: _503  and  _506
REMARK  204  A    between atoms: _509  and  _511
REMARK  205  A    between atoms: _511  and  _512
REMARK  206  A    between atoms: _511  and  _514
REMARK  207  A    between atoms: _514  and  _515
REMARK  208  A    between atoms: _519  and  _520
REMARK  209  A    between atoms: _525  and  _527
REMARK  210  A    between atoms: _527  and  _528
REMARK  211  A    between atoms: _527  and  _530
REMARK  212  A    between atoms: _530  and  _531
REMARK  213  A    between atoms: _534  and  _536
REMARK  214  A    between atoms: _536  and  _537
REMARK  215  A    between atoms: _540  and  _542
REMARK  216  A    between atoms: _542  and  _543
REMARK  217  A    between atoms: _542  and  _545
REMARK  218  A    between atoms: _545  and  _546
REMARK  219  A    between atoms: _549  and  _551
REMARK  220  A    between atoms: _551  and  _552
REMARK  221  A    between atoms: _551  and  _554
REMARK  222  A    between atoms: _554  and  _555
REMARK  223  A    between atoms: _557  and  _559
REMARK  224  A    between atoms: _559  and  _560
REMARK  225  A    between atoms: _562  and  _564
REMARK  226  A    between atoms: _564  and  _565
REMARK  227  A    between atoms: _564  and  _567
REMARK  228  A    between atoms: _567  and  _568
REMARK  229  A    between atoms: _571  and  _573
REMARK  230  A    between atoms: _573  and  _574
REMARK  231  A    between atoms: _573  and  _576
REMARK                            x       y       z     vdW  Elec       q    Type
REMARK                         _______ _______ _______ _____ _____    ______ ____
ROOT
ATOM      1  O   HOH     1      -9.100   0.240   6.322  0.00  0.00    +0.000 OA
ENDROOT
TORSDOF 0
REMARK  Name = ../refined-set-2016/4xu0/4xu0_pocket.pdb
REMARK  231 active torsions:
REMARK  status: ('A' for Active; 'I' for Inactive)
REMARK    1  A    between atoms: _1  and  _3
REMARK    2  A    between atoms: _3  and  _4
REMARK    3  A    between atoms: _3  and  _6
REMARK    4  A    between atoms: _6  and  _7
REMARK    5  A    between atoms: _10  and  _12
REMARK    6  A    between atoms: _12  and  _13
REMARK    7  A    between atoms: _15  and  _17
REMARK    8  A    between atoms: _17  and  _18
REMARK    9  A    between atoms: _17  and  _20
REMARK   10  A    between atoms: _20  and  _21
REMARK   11  A    between atoms: _23  and  _25
REMARK   12  A    between atoms: _25  and  _26
REMARK   13  A    between atoms: _25  and  _28
REMARK   14  A    between atoms: _28  and  _29
REMARK   15  A    between atoms: _32  and  _34
REMARK   16  A    between atoms: _34  and  _35
REMARK   17  A    between atoms: _34  and  _37
REMARK   18  A    between atoms: _37  and  _38
REMARK   19  A    between atoms: _43  and  _45
REMARK   20  A    between atoms: _45  and  _46
REMARK   21  A    between atoms: _49  and  _51
REMARK   22  A    between atoms: _51  and  _52
REMARK   23  A    between atoms: _51  and  _54
REMARK   24  A    between atoms: _54  and  _55
REMARK   25  A    between atoms: _58  and  _60
REMARK   26  A    between atoms: _60  and  _61
REMARK   27  A    between atoms: _60  and  _63
REMARK   28  A    between atoms: _63  and  _64
REMARK   29  A    between atoms: _67  and  _69
REMARK   30  A    between atoms: _69  and  _70
REMARK   31  A    between atoms: _69  and  _72
REMARK   32  A    between atoms: _72  and  _73
REMARK   33  A    between atoms: _76  and  _78
REMARK   34  A    between atoms: _78  and  _79
REMARK   35  A    between atoms: _82  and  _84
REMARK   36  A    between atoms: _84  and  _85
REMARK   37  A    between atoms: _84  and  _87
REMARK   38  A    between atoms: _87  and  _88
REMARK   39  A    between atoms: _88  and  _89
REMARK   40  A    between atoms: _94  and  _96
REMARK   41  A    between atoms: _96  and  _97
REMARK   42  A    between atoms: _96  and  _99
REMARK   43  A    between atoms: _99  and  _100
REMARK   44  A    between atoms: _103  and  _105
REMARK   45  A    between atoms: _105  and  _106
REMARK   46  A    between atoms: _109  and  _111
REMARK   47  A    between atoms: _111  and  _112
REMARK   48  A    between atoms: _114  and  _116
REMARK   49  A    between atoms: _116  and  _117
REMARK   50  A    between atoms: _116  and  _119
REMARK   51  A    between atoms: _119  and  _120
REMARK   52  A    between atoms: _120  and  _121
REMARK   53  A    between atoms: _121  and  _122
REMARK   54  A    between atoms: _131  and  _133
REMARK   55  A    between atoms: _133  and  _134
REMARK   56  A    between atoms: _136  and  _138
REMARK   57  A    between atoms: _138  and  _139
REMARK   58  A    between atoms: _138  and  _141
REMARK   59  A    between atoms: _141  and  _142
REMARK   60  A    between atoms: _142  and  _143
REMARK   61  A    between atoms: _143  and  _144
REMARK   62  A    between atoms: _153  and  _155
REMARK   63  A    between atoms: _155  and  _156
REMARK   64  A    between atoms: _155  and  _158
REMARK   65  A    between atoms: _158  and  _159
REMARK   66  A    between atoms: _164  and  _166
REMARK   67  A    between atoms: _166  and  _167
REMARK   68  A    between atoms: _169  and  _171
REMARK   69  A    between atoms: _171  and  _172
REMARK   70  A    between atoms: _171  and  _174
REMARK   71  A    between atoms: _174  and  _175
REMARK   72  A    between atoms: _175  and  _176
REMARK   73  A    between atoms: _176  and  _177
REMARK   74  A    between atoms: _186  and  _188
REMARK   75  A    between atoms: _188  and  _189
REMARK   76  A    between atoms: _191  and  _193
REMARK   77  A    between atoms: _193  and  _194
REMARK   78  A    between atoms: _193  and  _196
REMARK   79  A    between atoms: _196  and  _197
REMARK   80  A    between atoms: _207  and  _209
REMARK   81  A    between atoms: _209  and  _210
REMARK   82  A    between atoms: _213  and  _215
REMARK   83  A    between atoms: _215  and  _216
REMARK   84  A    between atoms: _219  and  _221
REMARK   85  A    between atoms: _221  and  _222
REMARK   86  A    between atoms: _221  and  _224
REMARK   87  A    between atoms: _224  and  _225
REMARK   88  A    between atoms: _228  and  _230
REMARK   89  A    between atoms: _230  and  _231
REMARK   90  A    between atoms: _230  and  _233
REMARK   91  A    between atoms: _233  and  _234
REMARK   92  A    between atoms: _234  and  _235
REMARK   93  A    between atoms: _240  and  _242
REMARK   94  A    between atoms: _242  and  _243
REMARK   95  A    between atoms: _242  and  _245
REMARK   96  A    between atoms: _245  and  _246
REMARK   97  A    between atoms: _249  and  _251
REMARK   98  A    between atoms: _251  and  _252
REMARK   99  A    between atoms: _251  and  _254
REMARK  100  A    between atoms: _254  and  _255
REMARK  101  A    between atoms: _258  and  _260
REMARK  102  A    between atoms: _260  and  _261
REMARK  103  A    between atoms: _260  and  _263
REMARK  104  A    between atoms: _263  and  _264
REMARK  105  A    between atoms: _267  and  _269
REMARK  106  A    between atoms: _269  and  _270
REMARK  107  A    between atoms: _269  and  _272
REMARK  108  A    between atoms: _272  and  _273
REMARK  109  A    between atoms: _275  and  _277
REMARK  110  A    between atoms: _277  and  _278
REMARK  111  A    between atoms: _277  and  _280
REMARK  112  A    between atoms: _283  and  _285
REMARK  113  A    between atoms: _285  and  _286
REMARK  114  A    between atoms: _285  and  _288
REMARK  115  A    between atoms: _288  and  _289
REMARK  116  A    between atoms: _289  and  _290
REMARK  117  A    between atoms: _290  and  _291
REMARK  118  A    between atoms: _291  and  _292
REMARK  119  A    between atoms: _297  and  _298
REMARK  120  A    between atoms: _303  and  _305
REMARK  121  A    between atoms: _305  and  _306
REMARK  122  A    between atoms: _305  and  _308
REMARK  123  A    between atoms: _308  and  _309
REMARK  124  A    between atoms: _314  and  _316
REMARK  125  A    between atoms: _316  and  _317
REMARK  126  A    between atoms: _316  and  _319
REMARK  127  A    between atoms: _319  and  _320
REMARK  128  A    between atoms: _323  and  _325
REMARK  129  A    between atoms: _325  and  _326
REMARK  130  A    between atoms: _325  and  _328
REMARK  131  A    between atoms: _331  and  _333
REMARK  132  A    between atoms: _333  and  _334
REMARK  133  A    between atoms: _336  and  _338
REMARK  134  A    between atoms: _338  and  _339
REMARK  135  A    between atoms: _338  and  _341
REMARK  136  A    between atoms: _341  and  _342
REMARK  137  A    between atoms: _342  and  _343
REMARK  138  A    between atoms: _343  and  _344
REMARK  139  A    between atoms: _344  and  _345
REMARK  140  A    between atoms: _349  and  _351
REMARK  141  A    between atoms: _351  and  _352
REMARK  142  A    between atoms: _351  and  _354
REMARK  143  A    between atoms: _354  and  _355
REMARK  144  A    between atoms: _358  and  _360
REMARK  145  A    between atoms: _360  and  _361
REMARK  146  A    between atoms: _364  and  _366
REMARK  147  A    between atoms: _366  and  _367
REMARK  148  A    between atoms: _369  and  _371
REMARK  149  A    between atoms: _371  and  _372
REMARK  150  A    between atoms: _371  and  _374
REMARK  151  A    between atoms: _374  and  _375
REMARK  152  A    between atoms: _378  and  _380
REMARK  153  A    between atoms: _380  and  _381
REMARK  154  A    between atoms: _380  and  _383
REMARK  155  A    between atoms: _383  and  _384
REMARK  156  A    between atoms: _387  and  _389
REMARK  157  A    between atoms: _389  and  _390
REMARK  158  A    between atoms: _393  and  _395
REMARK  159  A    between atoms: _395  and  _396
REMARK  160  A    between atoms: _395  and  _398
REMARK  161  A    between atoms: _398  and  _399
REMARK  162  A    between atoms: _399  and  _400
REMARK  163  A    between atoms: _403  and  _405
REMARK  164  A    between atoms: _405  and  _406
REMARK  165  A    between atoms: _405  and  _408
REMARK  166  A    between atoms: _411  and  _413
REMARK  167  A    between atoms: _413  and  _414
REMARK  168  A    between atoms: _413  and  _416
REMARK  169  A    between atoms: _416  and  _417
REMARK  170  A    between atoms: _420  and  _422
REMARK  171  A    between atoms: _422  and  _423
REMARK  172  A    between atoms: _425  and  _427
REMARK  173  A    between atoms: _427  and  _428
REMARK  174  A    between atoms: _427  and  _430
REMARK  175  A    between atoms: _433  and  _435
REMARK  176  A    between atoms: _435  and  _436
REMARK  177  A    between atoms: _438  and  _440
REMARK  178  A    between atoms: _440  and  _441
REMARK  179  A    between atoms: _440  and  _443
REMARK  180  A    between atoms: _443  and  _444
REMARK  181  A    between atoms: _447  and  _449
REMARK  182  A    between atoms: _449  and  _450
REMARK  183  A    between atoms: _449  and  _452
REMARK  184  A    between atoms: _452  and  _453
REMARK  185  A    between atoms: _458  and  _460
REMARK  186  A    between atoms: _460  and  _461
REMARK  187  A    between atoms: _460  and  _463
REMARK  188  A    between atoms: _466  and  _468
REMARK  189  A    between atoms: _468  and  _469
REMARK  190  A    between atoms: _468  and  _471
REMARK  191  A    between atoms: _471  and  _472
REMARK  192  A    between atoms: _472  and  _473
REMARK  193  A    between atoms: _478  and  _480
REMARK  194  A    between atoms: _480  and  _481
REMARK  195  A    between atoms: _485  and  _486
REMARK  196  A    between atoms: _491  and  _493
REMARK  197  A    between atoms: _493  and  _494
REMARK  198  A    between atoms: _493  and  _496
REMARK  199  A    between atoms: _496  and  _497
REMARK  200  A    between atoms: _497  and  _498
REMARK  201  A    between atoms: _501  and  _503
REMARK  202  A    between atoms: _503  and  _504
REMARK  203  A    between atoms: _503  and  _506
REMARK  204  A    between atoms: _509  and  _511
REMARK  205  A    between atoms: _511  and  _512
REMARK  206  A    between atoms: _511  and  _514
REMARK  207  A    between atoms: _514  and  _515
REMARK  208  A    between atoms: _519  and  _520
REMARK  209  A    between atoms: _525  and  _527
REMARK  210  A    between atoms: _527  and  _528
REMARK  211  A    between atoms: _527  and  _530
REMARK  212  A    between atoms: _530  and  _531
REMARK  213  A    between atoms: _534  and  _536
REMARK  214  A    between atoms: _536  and  _537
REMARK  215  A    between atoms: _540  and  _542
REMARK  216  A    between atoms: _542  and  _543
REMARK  217  A    between atoms: _542  and  _545
REMARK  218  A    between atoms: _545  and  _546
REMARK  219  A    between atoms: _549  and  _551
REMARK  220  A    between atoms: _551  and  _552
REMARK  221  A    between atoms: _551  and  _554
REMARK  222  A    between atoms: _554  and  _555
REMARK  223  A    between atoms: _557  and  _559
REMARK  224  A    between atoms: _559  and  _560
REMARK  225  A    between atoms: _562  and  _564
REMARK  226  A    between atoms: _564  and  _565
REMARK  227  A    between atoms: _564  and  _567
REMARK  228  A    between atoms: _567  and  _568
REMARK  229  A    between atoms: _571  and  _573
REMARK  230  A    between atoms: _573  and  _574
REMARK  231  A    between atoms: _573  and  _576
REMARK                            x       y       z     vdW  Elec       q    Type
REMARK                         _______ _______ _______ _____ _____    ______ ____
ROOT
ATOM      1  O   HOH     1      -2.133   1.504   5.509  0.00  0.00    +0.000 OA
ENDROOT
TORSDOF 0
REMARK  Name = ../refined-set-2016/4xu0/4xu0_pocket.pdb
REMARK  231 active torsions:
REMARK  status: ('A' for Active; 'I' for Inactive)
REMARK    1  A    between atoms: _1  and  _3
REMARK    2  A    between atoms: _3  and  _4
REMARK    3  A    between atoms: _3  and  _6
REMARK    4  A    between atoms: _6  and  _7
REMARK    5  A    between atoms: _10  and  _12
REMARK    6  A    between atoms: _12  and  _13
REMARK    7  A    between atoms: _15  and  _17
REMARK    8  A    between atoms: _17  and  _18
REMARK    9  A    between atoms: _17  and  _20
REMARK   10  A    between atoms: _20  and  _21
REMARK   11  A    between atoms: _23  and  _25
REMARK   12  A    between atoms: _25  and  _26
REMARK   13  A    between atoms: _25  and  _28
REMARK   14  A    between atoms: _28  and  _29
REMARK   15  A    between atoms: _32  and  _34
REMARK   16  A    between atoms: _34  and  _35
REMARK   17  A    between atoms: _34  and  _37
REMARK   18  A    between atoms: _37  and  _38
REMARK   19  A    between atoms: _43  and  _45
REMARK   20  A    between atoms: _45  and  _46
REMARK   21  A    between atoms: _49  and  _51
REMARK   22  A    between atoms: _51  and  _52
REMARK   23  A    between atoms: _51  and  _54
REMARK   24  A    between atoms: _54  and  _55
REMARK   25  A    between atoms: _58  and  _60
REMARK   26  A    between atoms: _60  and  _61
REMARK   27  A    between atoms: _60  and  _63
REMARK   28  A    between atoms: _63  and  _64
REMARK   29  A    between atoms: _67  and  _69
REMARK   30  A    between atoms: _69  and  _70
REMARK   31  A    between atoms: _69  and  _72
REMARK   32  A    between atoms: _72  and  _73
REMARK   33  A    between atoms: _76  and  _78
REMARK   34  A    between atoms: _78  and  _79
REMARK   35  A    between atoms: _82  and  _84
REMARK   36  A    between atoms: _84  and  _85
REMARK   37  A    between atoms: _84  and  _87
REMARK   38  A    between atoms: _87  and  _88
REMARK   39  A    between atoms: _88  and  _89
REMARK   40  A    between atoms: _94  and  _96
REMARK   41  A    between atoms: _96  and  _97
REMARK   42  A    between atoms: _96  and  _99
REMARK   43  A    between atoms: _99  and  _100
REMARK   44  A    between atoms: _103  and  _105
REMARK   45  A    between atoms: _105  and  _106
REMARK   46  A    between atoms: _109  and  _111
REMARK   47  A    between atoms: _111  and  _112
REMARK   48  A    between atoms: _114  and  _116
REMARK   49  A    between atoms: _116  and  _117
REMARK   50  A    between atoms: _116  and  _119
REMARK   51  A    between atoms: _119  and  _120
REMARK   52  A    between atoms: _120  and  _121
REMARK   53  A    between atoms: _121  and  _122
REMARK   54  A    between atoms: _131  and  _133
REMARK   55  A    between atoms: _133  and  _134
REMARK   56  A    between atoms: _136  and  _138
REMARK   57  A    between atoms: _138  and  _139
REMARK   58  A    between atoms: _138  and  _141
REMARK   59  A    between atoms: _141  and  _142
REMARK   60  A    between atoms: _142  and  _143
REMARK   61  A    between atoms: _143  and  _144
REMARK   62  A    between atoms: _153  and  _155
REMARK   63  A    between atoms: _155  and  _156
REMARK   64  A    between atoms: _155  and  _158
REMARK   65  A    between atoms: _158  and  _159
REMARK   66  A    between atoms: _164  and  _166
REMARK   67  A    between atoms: _166  and  _167
REMARK   68  A    between atoms: _169  and  _171
REMARK   69  A    between atoms: _171  and  _172
REMARK   70  A    between atoms: _171  and  _174
REMARK   71  A    between atoms: _174  and  _175
REMARK   72  A    between atoms: _175  and  _176
REMARK   73  A    between atoms: _176  and  _177
REMARK   74  A    between atoms: _186  and  _188
REMARK   75  A    between atoms: _188  and  _189
REMARK   76  A    between atoms: _191  and  _193
REMARK   77  A    between atoms: _193  and  _194
REMARK   78  A    between atoms: _193  and  _196
REMARK   79  A    between atoms: _196  and  _197
REMARK   80  A    between atoms: _207  and  _209
REMARK   81  A    between atoms: _209  and  _210
REMARK   82  A    between atoms: _213  and  _215
REMARK   83  A    between atoms: _215  and  _216
REMARK   84  A    between atoms: _219  and  _221
REMARK   85  A    between atoms: _221  and  _222
REMARK   86  A    between atoms: _221  and  _224
REMARK   87  A    between atoms: _224  and  _225
REMARK   88  A    between atoms: _228  and  _230
REMARK   89  A    between atoms: _230  and  _231
REMARK   90  A    between atoms: _230  and  _233
REMARK   91  A    between atoms: _233  and  _234
REMARK   92  A    between atoms: _234  and  _235
REMARK   93  A    between atoms: _240  and  _242
REMARK   94  A    between atoms: _242  and  _243
REMARK   95  A    between atoms: _242  and  _245
REMARK   96  A    between atoms: _245  and  _246
REMARK   97  A    between atoms: _249  and  _251
REMARK   98  A    between atoms: _251  and  _252
REMARK   99  A    between atoms: _251  and  _254
REMARK  100  A    between atoms: _254  and  _255
REMARK  101  A    between atoms: _258  and  _260
REMARK  102  A    between atoms: _260  and  _261
REMARK  103  A    between atoms: _260  and  _263
REMARK  104  A    between atoms: _263  and  _264
REMARK  105  A    between atoms: _267  and  _269
REMARK  106  A    between atoms: _269  and  _270
REMARK  107  A    between atoms: _269  and  _272
REMARK  108  A    between atoms: _272  and  _273
REMARK  109  A    between atoms: _275  and  _277
REMARK  110  A    between atoms: _277  and  _278
REMARK  111  A    between atoms: _277  and  _280
REMARK  112  A    between atoms: _283  and  _285
REMARK  113  A    between atoms: _285  and  _286
REMARK  114  A    between atoms: _285  and  _288
REMARK  115  A    between atoms: _288  and  _289
REMARK  116  A    between atoms: _289  and  _290
REMARK  117  A    between atoms: _290  and  _291
REMARK  118  A    between atoms: _291  and  _292
REMARK  119  A    between atoms: _297  and  _298
REMARK  120  A    between atoms: _303  and  _305
REMARK  121  A    between atoms: _305  and  _306
REMARK  122  A    between atoms: _305  and  _308
REMARK  123  A    between atoms: _308  and  _309
REMARK  124  A    between atoms: _314  and  _316
REMARK  125  A    between atoms: _316  and  _317
REMARK  126  A    between atoms: _316  and  _319
REMARK  127  A    between atoms: _319  and  _320
REMARK  128  A    between atoms: _323  and  _325
REMARK  129  A    between atoms: _325  and  _326
REMARK  130  A    between atoms: _325  and  _328
REMARK  131  A    between atoms: _331  and  _333
REMARK  132  A    between atoms: _333  and  _334
REMARK  133  A    between atoms: _336  and  _338
REMARK  134  A    between atoms: _338  and  _339
REMARK  135  A    between atoms: _338  and  _341
REMARK  136  A    between atoms: _341  and  _342
REMARK  137  A    between atoms: _342  and  _343
REMARK  138  A    between atoms: _343  and  _344
REMARK  139  A    between atoms: _344  and  _345
REMARK  140  A    between atoms: _349  and  _351
REMARK  141  A    between atoms: _351  and  _352
REMARK  142  A    between atoms: _351  and  _354
REMARK  143  A    between atoms: _354  and  _355
REMARK  144  A    between atoms: _358  and  _360
REMARK  145  A    between atoms: _360  and  _361
REMARK  146  A    between atoms: _364  and  _366
REMARK  147  A    between atoms: _366  and  _367
REMARK  148  A    between atoms: _369  and  _371
REMARK  149  A    between atoms: _371  and  _372
REMARK  150  A    between atoms: _371  and  _374
REMARK  151  A    between atoms: _374  and  _375
REMARK  152  A    between atoms: _378  and  _380
REMARK  153  A    between atoms: _380  and  _381
REMARK  154  A    between atoms: _380  and  _383
REMARK  155  A    between atoms: _383  and  _384
REMARK  156  A    between atoms: _387  and  _389
REMARK  157  A    between atoms: _389  and  _390
REMARK  158  A    between atoms: _393  and  _395
REMARK  159  A    between atoms: _395  and  _396
REMARK  160  A    between atoms: _395  and  _398
REMARK  161  A    between atoms: _398  and  _399
REMARK  162  A    between atoms: _399  and  _400
REMARK  163  A    between atoms: _403  and  _405
REMARK  164  A    between atoms: _405  and  _406
REMARK  165  A    between atoms: _405  and  _408
REMARK  166  A    between atoms: _411  and  _413
REMARK  167  A    between atoms: _413  and  _414
REMARK  168  A    between atoms: _413  and  _416
REMARK  169  A    between atoms: _416  and  _417
REMARK  170  A    between atoms: _420  and  _422
REMARK  171  A    between atoms: _422  and  _423
REMARK  172  A    between atoms: _425  and  _427
REMARK  173  A    between atoms: _427  and  _428
REMARK  174  A    between atoms: _427  and  _430
REMARK  175  A    between atoms: _433  and  _435
REMARK  176  A    between atoms: _435  and  _436
REMARK  177  A    between atoms: _438  and  _440
REMARK  178  A    between atoms: _440  and  _441
REMARK  179  A    between atoms: _440  and  _443
REMARK  180  A    between atoms: _443  and  _444
REMARK  181  A    between atoms: _447  and  _449
REMARK  182  A    between atoms: _449  and  _450
REMARK  183  A    between atoms: _449  and  _452
REMARK  184  A    between atoms: _452  and  _453
REMARK  185  A    between atoms: _458  and  _460
REMARK  186  A    between atoms: _460  and  _461
REMARK  187  A    between atoms: _460  and  _463
REMARK  188  A    between atoms: _466  and  _468
REMARK  189  A    between atoms: _468  and  _469
REMARK  190  A    between atoms: _468  and  _471
REMARK  191  A    between atoms: _471  and  _472
REMARK  192  A    between atoms: _472  and  _473
REMARK  193  A    between atoms: _478  and  _480
REMARK  194  A    between atoms: _480  and  _481
REMARK  195  A    between atoms: _485  and  _486
REMARK  196  A    between atoms: _491  and  _493
REMARK  197  A    between atoms: _493  and  _494
REMARK  198  A    between atoms: _493  and  _496
REMARK  199  A    between atoms: _496  and  _497
REMARK  200  A    between atoms: _497  and  _498
REMARK  201  A    between atoms: _501  and  _503
REMARK  202  A    between atoms: _503  and  _504
REMARK  203  A    between atoms: _503  and  _506
REMARK  204  A    between atoms: _509  and  _511
REMARK  205  A    between atoms: _511  and  _512
REMARK  206  A    between atoms: _511  and  _514
REMARK  207  A    between atoms: _514  and  _515
REMARK  208  A    between atoms: _519  and  _520
REMARK  209  A    between atoms: _525  and  _527
REMARK  210  A    between atoms: _527  and  _528
REMARK  211  A    between atoms: _527  and  _530
REMARK  212  A    between atoms: _530  and  _531
REMARK  213  A    between atoms: _534  and  _536
REMARK  214  A    between atoms: _536  and  _537
REMARK  215  A    between atoms: _540  and  _542
REMARK  216  A    between atoms: _542  and  _543
REMARK  217  A    between atoms: _542  and  _545
REMARK  218  A    between atoms: _545  and  _546
REMARK  219  A    between atoms: _549  and  _551
REMARK  220  A    between atoms: _551  and  _552
REMARK  221  A    between atoms: _551  and  _554
REMARK  222  A    between atoms: _554  and  _555
REMARK  223  A    between atoms: _557  and  _559
REMARK  224  A    between atoms: _559  and  _560
REMARK  225  A    between atoms: _562  and  _564
REMARK  226  A    between atoms: _564  and  _565
REMARK  227  A    between atoms: _564  and  _567
REMARK  228  A    between atoms: _567  and  _568
REMARK  229  A    between atoms: _571  and  _573
REMARK  230  A    between atoms: _573  and  _574
REMARK  231  A    between atoms: _573  and  _576
REMARK                            x       y       z     vdW  Elec       q    Type
REMARK                         _______ _______ _______ _____ _____    ______ ____
ROOT
ATOM      1  O   HOH     1       0.633 -10.481   3.935  0.00  0.00    +0.000 OA
ENDROOT
TORSDOF 0
REMARK  Name = ../refined-set-2016/4xu0/4xu0_pocket.pdb
REMARK  231 active torsions:
REMARK  status: ('A' for Active; 'I' for Inactive)
REMARK    1  A    between atoms: _1  and  _3
REMARK    2  A    between atoms: _3  and  _4
REMARK    3  A    between atoms: _3  and  _6
REMARK    4  A    between atoms: _6  and  _7
REMARK    5  A    between atoms: _10  and  _12
REMARK    6  A    between atoms: _12  and  _13
REMARK    7  A    between atoms: _15  and  _17
REMARK    8  A    between atoms: _17  and  _18
REMARK    9  A    between atoms: _17  and  _20
REMARK   10  A    between atoms: _20  and  _21
REMARK   11  A    between atoms: _23  and  _25
REMARK   12  A    between atoms: _25  and  _26
REMARK   13  A    between atoms: _25  and  _28
REMARK   14  A    between atoms: _28  and  _29
REMARK   15  A    between atoms: _32  and  _34
REMARK   16  A    between atoms: _34  and  _35
REMARK   17  A    between atoms: _34  and  _37
REMARK   18  A    between atoms: _37  and  _38
REMARK   19  A    between atoms: _43  and  _45
REMARK   20  A    between atoms: _45  and  _46
REMARK   21  A    between atoms: _49  and  _51
REMARK   22  A    between atoms: _51  and  _52
REMARK   23  A    between atoms: _51  and  _54
REMARK   24  A    between atoms: _54  and  _55
REMARK   25  A    between atoms: _58  and  _60
REMARK   26  A    between atoms: _60  and  _61
REMARK   27  A    between atoms: _60  and  _63
REMARK   28  A    between atoms: _63  and  _64
REMARK   29  A    between atoms: _67  and  _69
REMARK   30  A    between atoms: _69  and  _70
REMARK   31  A    between atoms: _69  and  _72
REMARK   32  A    between atoms: _72  and  _73
REMARK   33  A    between atoms: _76  and  _78
REMARK   34  A    between atoms: _78  and  _79
REMARK   35  A    between atoms: _82  and  _84
REMARK   36  A    between atoms: _84  and  _85
REMARK   37  A    between atoms: _84  and  _87
REMARK   38  A    between atoms: _87  and  _88
REMARK   39  A    between atoms: _88  and  _89
REMARK   40  A    between atoms: _94  and  _96
REMARK   41  A    between atoms: _96  and  _97
REMARK   42  A    between atoms: _96  and  _99
REMARK   43  A    between atoms: _99  and  _100
REMARK   44  A    between atoms: _103  and  _105
REMARK   45  A    between atoms: _105  and  _106
REMARK   46  A    between atoms: _109  and  _111
REMARK   47  A    between atoms: _111  and  _112
REMARK   48  A    between atoms: _114  and  _116
REMARK   49  A    between atoms: _116  and  _117
REMARK   50  A    between atoms: _116  and  _119
REMARK   51  A    between atoms: _119  and  _120
REMARK   52  A    between atoms: _120  and  _121
REMARK   53  A    between atoms: _121  and  _122
REMARK   54  A    between atoms: _131  and  _133
REMARK   55  A    between atoms: _133  and  _134
REMARK   56  A    between atoms: _136  and  _138
REMARK   57  A    between atoms: _138  and  _139
REMARK   58  A    between atoms: _138  and  _141
REMARK   59  A    between atoms: _141  and  _142
REMARK   60  A    between atoms: _142  and  _143
REMARK   61  A    between atoms: _143  and  _144
REMARK   62  A    between atoms: _153  and  _155
REMARK   63  A    between atoms: _155  and  _156
REMARK   64  A    between atoms: _155  and  _158
REMARK   65  A    between atoms: _158  and  _159
REMARK   66  A    between atoms: _164  and  _166
REMARK   67  A    between atoms: _166  and  _167
REMARK   68  A    between atoms: _169  and  _171
REMARK   69  A    between atoms: _171  and  _172
REMARK   70  A    between atoms: _171  and  _174
REMARK   71  A    between atoms: _174  and  _175
REMARK   72  A    between atoms: _175  and  _176
REMARK   73  A    between atoms: _176  and  _177
REMARK   74  A    between atoms: _186  and  _188
REMARK   75  A    between atoms: _188  and  _189
REMARK   76  A    between atoms: _191  and  _193
REMARK   77  A    between atoms: _193  and  _194
REMARK   78  A    between atoms: _193  and  _196
REMARK   79  A    between atoms: _196  and  _197
REMARK   80  A    between atoms: _207  and  _209
REMARK   81  A    between atoms: _209  and  _210
REMARK   82  A    between atoms: _213  and  _215
REMARK   83  A    between atoms: _215  and  _216
REMARK   84  A    between atoms: _219  and  _221
REMARK   85  A    between atoms: _221  and  _222
REMARK   86  A    between atoms: _221  and  _224
REMARK   87  A    between atoms: _224  and  _225
REMARK   88  A    between atoms: _228  and  _230
REMARK   89  A    between atoms: _230  and  _231
REMARK   90  A    between atoms: _230  and  _233
REMARK   91  A    between atoms: _233  and  _234
REMARK   92  A    between atoms: _234  and  _235
REMARK   93  A    between atoms: _240  and  _242
REMARK   94  A    between atoms: _242  and  _243
REMARK   95  A    between atoms: _242  and  _245
REMARK   96  A    between atoms: _245  and  _246
REMARK   97  A    between atoms: _249  and  _251
REMARK   98  A    between atoms: _251  and  _252
REMARK   99  A    between atoms: _251  and  _254
REMARK  100  A    between atoms: _254  and  _255
REMARK  101  A    between atoms: _258  and  _260
REMARK  102  A    between atoms: _260  and  _261
REMARK  103  A    between atoms: _260  and  _263
REMARK  104  A    between atoms: _263  and  _264
REMARK  105  A    between atoms: _267  and  _269
REMARK  106  A    between atoms: _269  and  _270
REMARK  107  A    between atoms: _269  and  _272
REMARK  108  A    between atoms: _272  and  _273
REMARK  109  A    between atoms: _275  and  _277
REMARK  110  A    between atoms: _277  and  _278
REMARK  111  A    between atoms: _277  and  _280
REMARK  112  A    between atoms: _283  and  _285
REMARK  113  A    between atoms: _285  and  _286
REMARK  114  A    between atoms: _285  and  _288
REMARK  115  A    between atoms: _288  and  _289
REMARK  116  A    between atoms: _289  and  _290
REMARK  117  A    between atoms: _290  and  _291
REMARK  118  A    between atoms: _291  and  _292
REMARK  119  A    between atoms: _297  and  _298
REMARK  120  A    between atoms: _303  and  _305
REMARK  121  A    between atoms: _305  and  _306
REMARK  122  A    between atoms: _305  and  _308
REMARK  123  A    between atoms: _308  and  _309
REMARK  124  A    between atoms: _314  and  _316
REMARK  125  A    between atoms: _316  and  _317
REMARK  126  A    between atoms: _316  and  _319
REMARK  127  A    between atoms: _319  and  _320
REMARK  128  A    between atoms: _323  and  _325
REMARK  129  A    between atoms: _325  and  _326
REMARK  130  A    between atoms: _325  and  _328
REMARK  131  A    between atoms: _331  and  _333
REMARK  132  A    between atoms: _333  and  _334
REMARK  133  A    between atoms: _336  and  _338
REMARK  134  A    between atoms: _338  and  _339
REMARK  135  A    between atoms: _338  and  _341
REMARK  136  A    between atoms: _341  and  _342
REMARK  137  A    between atoms: _342  and  _343
REMARK  138  A    between atoms: _343  and  _344
REMARK  139  A    between atoms: _344  and  _345
REMARK  140  A    between atoms: _349  and  _351
REMARK  141  A    between atoms: _351  and  _352
REMARK  142  A    between atoms: _351  and  _354
REMARK  143  A    between atoms: _354  and  _355
REMARK  144  A    between atoms: _358  and  _360
REMARK  145  A    between atoms: _360  and  _361
REMARK  146  A    between atoms: _364  and  _366
REMARK  147  A    between atoms: _366  and  _367
REMARK  148  A    between atoms: _369  and  _371
REMARK  149  A    between atoms: _371  and  _372
REMARK  150  A    between atoms: _371  and  _374
REMARK  151  A    between atoms: _374  and  _375
REMARK  152  A    between atoms: _378  and  _380
REMARK  153  A    between atoms: _380  and  _381
REMARK  154  A    between atoms: _380  and  _383
REMARK  155  A    between atoms: _383  and  _384
REMARK  156  A    between atoms: _387  and  _389
REMARK  157  A    between atoms: _389  and  _390
REMARK  158  A    between atoms: _393  and  _395
REMARK  159  A    between atoms: _395  and  _396
REMARK  160  A    between atoms: _395  and  _398
REMARK  161  A    between atoms: _398  and  _399
REMARK  162  A    between atoms: _399  and  _400
REMARK  163  A    between atoms: _403  and  _405
REMARK  164  A    between atoms: _405  and  _406
REMARK  165  A    between atoms: _405  and  _408
REMARK  166  A    between atoms: _411  and  _413
REMARK  167  A    between atoms: _413  and  _414
REMARK  168  A    between atoms: _413  and  _416
REMARK  169  A    between atoms: _416  and  _417
REMARK  170  A    between atoms: _420  and  _422
REMARK  171  A    between atoms: _422  and  _423
REMARK  172  A    between atoms: _425  and  _427
REMARK  173  A    between atoms: _427  and  _428
REMARK  174  A    between atoms: _427  and  _430
REMARK  175  A    between atoms: _433  and  _435
REMARK  176  A    between atoms: _435  and  _436
REMARK  177  A    between atoms: _438  and  _440
REMARK  178  A    between atoms: _440  and  _441
REMARK  179  A    between atoms: _440  and  _443
REMARK  180  A    between atoms: _443  and  _444
REMARK  181  A    between atoms: _447  and  _449
REMARK  182  A    between atoms: _449  and  _450
REMARK  183  A    between atoms: _449  and  _452
REMARK  184  A    between atoms: _452  and  _453
REMARK  185  A    between atoms: _458  and  _460
REMARK  186  A    between atoms: _460  and  _461
REMARK  187  A    between atoms: _460  and  _463
REMARK  188  A    between atoms: _466  and  _468
REMARK  189  A    between atoms: _468  and  _469
REMARK  190  A    between atoms: _468  and  _471
REMARK  191  A    between atoms: _471  and  _472
REMARK  192  A    between atoms: _472  and  _473
REMARK  193  A    between atoms: _478  and  _480
REMARK  194  A    between atoms: _480  and  _481
REMARK  195  A    between atoms: _485  and  _486
REMARK  196  A    between atoms: _491  and  _493
REMARK  197  A    between atoms: _493  and  _494
REMARK  198  A    between atoms: _493  and  _496
REMARK  199  A    between atoms: _496  and  _497
REMARK  200  A    between atoms: _497  and  _498
REMARK  201  A    between atoms: _501  and  _503
REMARK  202  A    between atoms: _503  and  _504
REMARK  203  A    between atoms: _503  and  _506
REMARK  204  A    between atoms: _509  and  _511
REMARK  205  A    between atoms: _511  and  _512
REMARK  206  A    between atoms: _511  and  _514
REMARK  207  A    between atoms: _514  and  _515
REMARK  208  A    between atoms: _519  and  _520
REMARK  209  A    between atoms: _525  and  _527
REMARK  210  A    between atoms: _527  and  _528
REMARK  211  A    between atoms: _527  and  _530
REMARK  212  A    between atoms: _530  and  _531
REMARK  213  A    between atoms: _534  and  _536
REMARK  214  A    between atoms: _536  and  _537
REMARK  215  A    between atoms: _540  and  _542
REMARK  216  A    between atoms: _542  and  _543
REMARK  217  A    between atoms: _542  and  _545
REMARK  218  A    between atoms: _545  and  _546
REMARK  219  A    between atoms: _549  and  _551
REMARK  220  A    between atoms: _551  and  _552
REMARK  221  A    between atoms: _551  and  _554
REMARK  222  A    between atoms: _554  and  _555
REMARK  223  A    between atoms: _557  and  _559
REMARK  224  A    between atoms: _559  and  _560
REMARK  225  A    between atoms: _562  and  _564
REMARK  226  A    between atoms: _564  and  _565
REMARK  227  A    between atoms: _564  and  _567
REMARK  228  A    between atoms: _567  and  _568
REMARK  229  A    between atoms: _571  and  _573
REMARK  230  A    between atoms: _573  and  _574
REMARK  231  A    between atoms: _573  and  _576
REMARK                            x       y       z     vdW  Elec       q    Type
REMARK                         _______ _______ _______ _____ _____    ______ ____
ROOT
ATOM      1  O   HOH     1       1.207   1.663  10.056  0.00  0.00    +0.000 OA
ENDROOT
TORSDOF 0
REMARK  Name = ../refined-set-2016/4xu0/4xu0_pocket.pdb
REMARK  231 active torsions:
REMARK  status: ('A' for Active; 'I' for Inactive)
REMARK    1  A    between atoms: _1  and  _3
REMARK    2  A    between atoms: _3  and  _4
REMARK    3  A    between atoms: _3  and  _6
REMARK    4  A    between atoms: _6  and  _7
REMARK    5  A    between atoms: _10  and  _12
REMARK    6  A    between atoms: _12  and  _13
REMARK    7  A    between atoms: _15  and  _17
REMARK    8  A    between atoms: _17  and  _18
REMARK    9  A    between atoms: _17  and  _20
REMARK   10  A    between atoms: _20  and  _21
REMARK   11  A    between atoms: _23  and  _25
REMARK   12  A    between atoms: _25  and  _26
REMARK   13  A    between atoms: _25  and  _28
REMARK   14  A    between atoms: _28  and  _29
REMARK   15  A    between atoms: _32  and  _34
REMARK   16  A    between atoms: _34  and  _35
REMARK   17  A    between atoms: _34  and  _37
REMARK   18  A    between atoms: _37  and  _38
REMARK   19  A    between atoms: _43  and  _45
REMARK   20  A    between atoms: _45  and  _46
REMARK   21  A    between atoms: _49  and  _51
REMARK   22  A    between atoms: _51  and  _52
REMARK   23  A    between atoms: _51  and  _54
REMARK   24  A    between atoms: _54  and  _55
REMARK   25  A    between atoms: _58  and  _60
REMARK   26  A    between atoms: _60  and  _61
REMARK   27  A    between atoms: _60  and  _63
REMARK   28  A    between atoms: _63  and  _64
REMARK   29  A    between atoms: _67  and  _69
REMARK   30  A    between atoms: _69  and  _70
REMARK   31  A    between atoms: _69  and  _72
REMARK   32  A    between atoms: _72  and  _73
REMARK   33  A    between atoms: _76  and  _78
REMARK   34  A    between atoms: _78  and  _79
REMARK   35  A    between atoms: _82  and  _84
REMARK   36  A    between atoms: _84  and  _85
REMARK   37  A    between atoms: _84  and  _87
REMARK   38  A    between atoms: _87  and  _88
REMARK   39  A    between atoms: _88  and  _89
REMARK   40  A    between atoms: _94  and  _96
REMARK   41  A    between atoms: _96  and  _97
REMARK   42  A    between atoms: _96  and  _99
REMARK   43  A    between atoms: _99  and  _100
REMARK   44  A    between atoms: _103  and  _105
REMARK   45  A    between atoms: _105  and  _106
REMARK   46  A    between atoms: _109  and  _111
REMARK   47  A    between atoms: _111  and  _112
REMARK   48  A    between atoms: _114  and  _116
REMARK   49  A    between atoms: _116  and  _117
REMARK   50  A    between atoms: _116  and  _119
REMARK   51  A    between atoms: _119  and  _120
REMARK   52  A    between atoms: _120  and  _121
REMARK   53  A    between atoms: _121  and  _122
REMARK   54  A    between atoms: _131  and  _133
REMARK   55  A    between atoms: _133  and  _134
REMARK   56  A    between atoms: _136  and  _138
REMARK   57  A    between atoms: _138  and  _139
REMARK   58  A    between atoms: _138  and  _141
REMARK   59  A    between atoms: _141  and  _142
REMARK   60  A    between atoms: _142  and  _143
REMARK   61  A    between atoms: _143  and  _144
REMARK   62  A    between atoms: _153  and  _155
REMARK   63  A    between atoms: _155  and  _156
REMARK   64  A    between atoms: _155  and  _158
REMARK   65  A    between atoms: _158  and  _159
REMARK   66  A    between atoms: _164  and  _166
REMARK   67  A    between atoms: _166  and  _167
REMARK   68  A    between atoms: _169  and  _171
REMARK   69  A    between atoms: _171  and  _172
REMARK   70  A    between atoms: _171  and  _174
REMARK   71  A    between atoms: _174  and  _175
REMARK   72  A    between atoms: _175  and  _176
REMARK   73  A    between atoms: _176  and  _177
REMARK   74  A    between atoms: _186  and  _188
REMARK   75  A    between atoms: _188  and  _189
REMARK   76  A    between atoms: _191  and  _193
REMARK   77  A    between atoms: _193  and  _194
REMARK   78  A    between atoms: _193  and  _196
REMARK   79  A    between atoms: _196  and  _197
REMARK   80  A    between atoms: _207  and  _209
REMARK   81  A    between atoms: _209  and  _210
REMARK   82  A    between atoms: _213  and  _215
REMARK   83  A    between atoms: _215  and  _216
REMARK   84  A    between atoms: _219  and  _221
REMARK   85  A    between atoms: _221  and  _222
REMARK   86  A    between atoms: _221  and  _224
REMARK   87  A    between atoms: _224  and  _225
REMARK   88  A    between atoms: _228  and  _230
REMARK   89  A    between atoms: _230  and  _231
REMARK   90  A    between atoms: _230  and  _233
REMARK   91  A    between atoms: _233  and  _234
REMARK   92  A    between atoms: _234  and  _235
REMARK   93  A    between atoms: _240  and  _242
REMARK   94  A    between atoms: _242  and  _243
REMARK   95  A    between atoms: _242  and  _245
REMARK   96  A    between atoms: _245  and  _246
REMARK   97  A    between atoms: _249  and  _251
REMARK   98  A    between atoms: _251  and  _252
REMARK   99  A    between atoms: _251  and  _254
REMARK  100  A    between atoms: _254  and  _255
REMARK  101  A    between atoms: _258  and  _260
REMARK  102  A    between atoms: _260  and  _261
REMARK  103  A    between atoms: _260  and  _263
REMARK  104  A    between atoms: _263  and  _264
REMARK  105  A    between atoms: _267  and  _269
REMARK  106  A    between atoms: _269  and  _270
REMARK  107  A    between atoms: _269  and  _272
REMARK  108  A    between atoms: _272  and  _273
REMARK  109  A    between atoms: _275  and  _277
REMARK  110  A    between atoms: _277  and  _278
REMARK  111  A    between atoms: _277  and  _280
REMARK  112  A    between atoms: _283  and  _285
REMARK  113  A    between atoms: _285  and  _286
REMARK  114  A    between atoms: _285  and  _288
REMARK  115  A    between atoms: _288  and  _289
REMARK  116  A    between atoms: _289  and  _290
REMARK  117  A    between atoms: _290  and  _291
REMARK  118  A    between atoms: _291  and  _292
REMARK  119  A    between atoms: _297  and  _298
REMARK  120  A    between atoms: _303  and  _305
REMARK  121  A    between atoms: _305  and  _306
REMARK  122  A    between atoms: _305  and  _308
REMARK  123  A    between atoms: _308  and  _309
REMARK  124  A    between atoms: _314  and  _316
REMARK  125  A    between atoms: _316  and  _317
REMARK  126  A    between atoms: _316  and  _319
REMARK  127  A    between atoms: _319  and  _320
REMARK  128  A    between atoms: _323  and  _325
REMARK  129  A    between atoms: _325  and  _326
REMARK  130  A    between atoms: _325  and  _328
REMARK  131  A    between atoms: _331  and  _333
REMARK  132  A    between atoms: _333  and  _334
REMARK  133  A    between atoms: _336  and  _338
REMARK  134  A    between atoms: _338  and  _339
REMARK  135  A    between atoms: _338  and  _341
REMARK  136  A    between atoms: _341  and  _342
REMARK  137  A    between atoms: _342  and  _343
REMARK  138  A    between atoms: _343  and  _344
REMARK  139  A    between atoms: _344  and  _345
REMARK  140  A    between atoms: _349  and  _351
REMARK  141  A    between atoms: _351  and  _352
REMARK  142  A    between atoms: _351  and  _354
REMARK  143  A    between atoms: _354  and  _355
REMARK  144  A    between atoms: _358  and  _360
REMARK  145  A    between atoms: _360  and  _361
REMARK  146  A    between atoms: _364  and  _366
REMARK  147  A    between atoms: _366  and  _367
REMARK  148  A    between atoms: _369  and  _371
REMARK  149  A    between atoms: _371  and  _372
REMARK  150  A    between atoms: _371  and  _374
REMARK  151  A    between atoms: _374  and  _375
REMARK  152  A    between atoms: _378  and  _380
REMARK  153  A    between atoms: _380  and  _381
REMARK  154  A    between atoms: _380  and  _383
REMARK  155  A    between atoms: _383  and  _384
REMARK  156  A    between atoms: _387  and  _389
REMARK  157  A    between atoms: _389  and  _390
REMARK  158  A    between atoms: _393  and  _395
REMARK  159  A    between atoms: _395  and  _396
REMARK  160  A    between atoms: _395  and  _398
REMARK  161  A    between atoms: _398  and  _399
REMARK  162  A    between atoms: _399  and  _400
REMARK  163  A    between atoms: _403  and  _405
REMARK  164  A    between atoms: _405  and  _406
REMARK  165  A    between atoms: _405  and  _408
REMARK  166  A    between atoms: _411  and  _413
REMARK  167  A    between atoms: _413  and  _414
REMARK  168  A    between atoms: _413  and  _416
REMARK  169  A    between atoms: _416  and  _417
REMARK  170  A    between atoms: _420  and  _422
REMARK  171  A    between atoms: _422  and  _423
REMARK  172  A    between atoms: _425  and  _427
REMARK  173  A    between atoms: _427  and  _428
REMARK  174  A    between atoms: _427  and  _430
REMARK  175  A    between atoms: _433  and  _435
REMARK  176  A    between atoms: _435  and  _436
REMARK  177  A    between atoms: _438  and  _440
REMARK  178  A    between atoms: _440  and  _441
REMARK  179  A    between atoms: _440  and  _443
REMARK  180  A    between atoms: _443  and  _444
REMARK  181  A    between atoms: _447  and  _449
REMARK  182  A    between atoms: _449  and  _450
REMARK  183  A    between atoms: _449  and  _452
REMARK  184  A    between atoms: _452  and  _453
REMARK  185  A    between atoms: _458  and  _460
REMARK  186  A    between atoms: _460  and  _461
REMARK  187  A    between atoms: _460  and  _463
REMARK  188  A    between atoms: _466  and  _468
REMARK  189  A    between atoms: _468  and  _469
REMARK  190  A    between atoms: _468  and  _471
REMARK  191  A    between atoms: _471  and  _472
REMARK  192  A    between atoms: _472  and  _473
REMARK  193  A    between atoms: _478  and  _480
REMARK  194  A    between atoms: _480  and  _481
REMARK  195  A    between atoms: _485  and  _486
REMARK  196  A    between atoms: _491  and  _493
REMARK  197  A    between atoms: _493  and  _494
REMARK  198  A    between atoms: _493  and  _496
REMARK  199  A    between atoms: _496  and  _497
REMARK  200  A    between atoms: _497  and  _498
REMARK  201  A    between atoms: _501  and  _503
REMARK  202  A    between atoms: _503  and  _504
REMARK  203  A    between atoms: _503  and  _506
REMARK  204  A    between atoms: _509  and  _511
REMARK  205  A    between atoms: _511  and  _512
REMARK  206  A    between atoms: _511  and  _514
REMARK  207  A    between atoms: _514  and  _515
REMARK  208  A    between atoms: _519  and  _520
REMARK  209  A    between atoms: _525  and  _527
REMARK  210  A    between atoms: _527  and  _528
REMARK  211  A    between atoms: _527  and  _530
REMARK  212  A    between atoms: _530  and  _531
REMARK  213  A    between atoms: _534  and  _536
REMARK  214  A    between atoms: _536  and  _537
REMARK  215  A    between atoms: _540  and  _542
REMARK  216  A    between atoms: _542  and  _543
REMARK  217  A    between atoms: _542  and  _545
REMARK  218  A    between atoms: _545  and  _546
REMARK  219  A    between atoms: _549  and  _551
REMARK  220  A    between atoms: _551  and  _552
REMARK  221  A    between atoms: _551  and  _554
REMARK  222  A    between atoms: _554  and  _555
REMARK  223  A    between atoms: _557  and  _559
REMARK  224  A    between atoms: _559  and  _560
REMARK  225  A    between atoms: _562  and  _564
REMARK  226  A    between atoms: _564  and  _565
REMARK  227  A    between atoms: _564  and  _567
REMARK  228  A    between atoms: _567  and  _568
REMARK  229  A    between atoms: _571  and  _573
REMARK  230  A    between atoms: _573  and  _574
REMARK  231  A    between atoms: _573  and  _576
REMARK                            x       y       z     vdW  Elec       q    Type
REMARK                         _______ _______ _______ _____ _____    ______ ____
ROOT
ATOM      1  O   HOH     1      -0.468   4.352  15.230  0.00  0.00    +0.000 OA
ENDROOT
TORSDOF 0
REMARK  Name = ../refined-set-2016/4xu0/4xu0_pocket.pdb
REMARK  231 active torsions:
REMARK  status: ('A' for Active; 'I' for Inactive)
REMARK    1  A    between atoms: _1  and  _3
REMARK    2  A    between atoms: _3  and  _4
REMARK    3  A    between atoms: _3  and  _6
REMARK    4  A    between atoms: _6  and  _7
REMARK    5  A    between atoms: _10  and  _12
REMARK    6  A    between atoms: _12  and  _13
REMARK    7  A    between atoms: _15  and  _17
REMARK    8  A    between atoms: _17  and  _18
REMARK    9  A    between atoms: _17  and  _20
REMARK   10  A    between atoms: _20  and  _21
REMARK   11  A    between atoms: _23  and  _25
REMARK   12  A    between atoms: _25  and  _26
REMARK   13  A    between atoms: _25  and  _28
REMARK   14  A    between atoms: _28  and  _29
REMARK   15  A    between atoms: _32  and  _34
REMARK   16  A    between atoms: _34  and  _35
REMARK   17  A    between atoms: _34  and  _37
REMARK   18  A    between atoms: _37  and  _38
REMARK   19  A    between atoms: _43  and  _45
REMARK   20  A    between atoms: _45  and  _46
REMARK   21  A    between atoms: _49  and  _51
REMARK   22  A    between atoms: _51  and  _52
REMARK   23  A    between atoms: _51  and  _54
REMARK   24  A    between atoms: _54  and  _55
REMARK   25  A    between atoms: _58  and  _60
REMARK   26  A    between atoms: _60  and  _61
REMARK   27  A    between atoms: _60  and  _63
REMARK   28  A    between atoms: _63  and  _64
REMARK   29  A    between atoms: _67  and  _69
REMARK   30  A    between atoms: _69  and  _70
REMARK   31  A    between atoms: _69  and  _72
REMARK   32  A    between atoms: _72  and  _73
REMARK   33  A    between atoms: _76  and  _78
REMARK   34  A    between atoms: _78  and  _79
REMARK   35  A    between atoms: _82  and  _84
REMARK   36  A    between atoms: _84  and  _85
REMARK   37  A    between atoms: _84  and  _87
REMARK   38  A    between atoms: _87  and  _88
REMARK   39  A    between atoms: _88  and  _89
REMARK   40  A    between atoms: _94  and  _96
REMARK   41  A    between atoms: _96  and  _97
REMARK   42  A    between atoms: _96  and  _99
REMARK   43  A    between atoms: _99  and  _100
REMARK   44  A    between atoms: _103  and  _105
REMARK   45  A    between atoms: _105  and  _106
REMARK   46  A    between atoms: _109  and  _111
REMARK   47  A    between atoms: _111  and  _112
REMARK   48  A    between atoms: _114  and  _116
REMARK   49  A    between atoms: _116  and  _117
REMARK   50  A    between atoms: _116  and  _119
REMARK   51  A    between atoms: _119  and  _120
REMARK   52  A    between atoms: _120  and  _121
REMARK   53  A    between atoms: _121  and  _122
REMARK   54  A    between atoms: _131  and  _133
REMARK   55  A    between atoms: _133  and  _134
REMARK   56  A    between atoms: _136  and  _138
REMARK   57  A    between atoms: _138  and  _139
REMARK   58  A    between atoms: _138  and  _141
REMARK   59  A    between atoms: _141  and  _142
REMARK   60  A    between atoms: _142  and  _143
REMARK   61  A    between atoms: _143  and  _144
REMARK   62  A    between atoms: _153  and  _155
REMARK   63  A    between atoms: _155  and  _156
REMARK   64  A    between atoms: _155  and  _158
REMARK   65  A    between atoms: _158  and  _159
REMARK   66  A    between atoms: _164  and  _166
REMARK   67  A    between atoms: _166  and  _167
REMARK   68  A    between atoms: _169  and  _171
REMARK   69  A    between atoms: _171  and  _172
REMARK   70  A    between atoms: _171  and  _174
REMARK   71  A    between atoms: _174  and  _175
REMARK   72  A    between atoms: _175  and  _176
REMARK   73  A    between atoms: _176  and  _177
REMARK   74  A    between atoms: _186  and  _188
REMARK   75  A    between atoms: _188  and  _189
REMARK   76  A    between atoms: _191  and  _193
REMARK   77  A    between atoms: _193  and  _194
REMARK   78  A    between atoms: _193  and  _196
REMARK   79  A    between atoms: _196  and  _197
REMARK   80  A    between atoms: _207  and  _209
REMARK   81  A    between atoms: _209  and  _210
REMARK   82  A    between atoms: _213  and  _215
REMARK   83  A    between atoms: _215  and  _216
REMARK   84  A    between atoms: _219  and  _221
REMARK   85  A    between atoms: _221  and  _222
REMARK   86  A    between atoms: _221  and  _224
REMARK   87  A    between atoms: _224  and  _225
REMARK   88  A    between atoms: _228  and  _230
REMARK   89  A    between atoms: _230  and  _231
REMARK   90  A    between atoms: _230  and  _233
REMARK   91  A    between atoms: _233  and  _234
REMARK   92  A    between atoms: _234  and  _235
REMARK   93  A    between atoms: _240  and  _242
REMARK   94  A    between atoms: _242  and  _243
REMARK   95  A    between atoms: _242  and  _245
REMARK   96  A    between atoms: _245  and  _246
REMARK   97  A    between atoms: _249  and  _251
REMARK   98  A    between atoms: _251  and  _252
REMARK   99  A    between atoms: _251  and  _254
REMARK  100  A    between atoms: _254  and  _255
REMARK  101  A    between atoms: _258  and  _260
REMARK  102  A    between atoms: _260  and  _261
REMARK  103  A    between atoms: _260  and  _263
REMARK  104  A    between atoms: _263  and  _264
REMARK  105  A    between atoms: _267  and  _269
REMARK  106  A    between atoms: _269  and  _270
REMARK  107  A    between atoms: _269  and  _272
REMARK  108  A    between atoms: _272  and  _273
REMARK  109  A    between atoms: _275  and  _277
REMARK  110  A    between atoms: _277  and  _278
REMARK  111  A    between atoms: _277  and  _280
REMARK  112  A    between atoms: _283  and  _285
REMARK  113  A    between atoms: _285  and  _286
REMARK  114  A    between atoms: _285  and  _288
REMARK  115  A    between atoms: _288  and  _289
REMARK  116  A    between atoms: _289  and  _290
REMARK  117  A    between atoms: _290  and  _291
REMARK  118  A    between atoms: _291  and  _292
REMARK  119  A    between atoms: _297  and  _298
REMARK  120  A    between atoms: _303  and  _305
REMARK  121  A    between atoms: _305  and  _306
REMARK  122  A    between atoms: _305  and  _308
REMARK  123  A    between atoms: _308  and  _309
REMARK  124  A    between atoms: _314  and  _316
REMARK  125  A    between atoms: _316  and  _317
REMARK  126  A    between atoms: _316  and  _319
REMARK  127  A    between atoms: _319  and  _320
REMARK  128  A    between atoms: _323  and  _325
REMARK  129  A    between atoms: _325  and  _326
REMARK  130  A    between atoms: _325  and  _328
REMARK  131  A    between atoms: _331  and  _333
REMARK  132  A    between atoms: _333  and  _334
REMARK  133  A    between atoms: _336  and  _338
REMARK  134  A    between atoms: _338  and  _339
REMARK  135  A    between atoms: _338  and  _341
REMARK  136  A    between atoms: _341  and  _342
REMARK  137  A    between atoms: _342  and  _343
REMARK  138  A    between atoms: _343  and  _344
REMARK  139  A    between atoms: _344  and  _345
REMARK  140  A    between atoms: _349  and  _351
REMARK  141  A    between atoms: _351  and  _352
REMARK  142  A    between atoms: _351  and  _354
REMARK  143  A    between atoms: _354  and  _355
REMARK  144  A    between atoms: _358  and  _360
REMARK  145  A    between atoms: _360  and  _361
REMARK  146  A    between atoms: _364  and  _366
REMARK  147  A    between atoms: _366  and  _367
REMARK  148  A    between atoms: _369  and  _371
REMARK  149  A    between atoms: _371  and  _372
REMARK  150  A    between atoms: _371  and  _374
REMARK  151  A    between atoms: _374  and  _375
REMARK  152  A    between atoms: _378  and  _380
REMARK  153  A    between atoms: _380  and  _381
REMARK  154  A    between atoms: _380  and  _383
REMARK  155  A    between atoms: _383  and  _384
REMARK  156  A    between atoms: _387  and  _389
REMARK  157  A    between atoms: _389  and  _390
REMARK  158  A    between atoms: _393  and  _395
REMARK  159  A    between atoms: _395  and  _396
REMARK  160  A    between atoms: _395  and  _398
REMARK  161  A    between atoms: _398  and  _399
REMARK  162  A    between atoms: _399  and  _400
REMARK  163  A    between atoms: _403  and  _405
REMARK  164  A    between atoms: _405  and  _406
REMARK  165  A    between atoms: _405  and  _408
REMARK  166  A    between atoms: _411  and  _413
REMARK  167  A    between atoms: _413  and  _414
REMARK  168  A    between atoms: _413  and  _416
REMARK  169  A    between atoms: _416  and  _417
REMARK  170  A    between atoms: _420  and  _422
REMARK  171  A    between atoms: _422  and  _423
REMARK  172  A    between atoms: _425  and  _427
REMARK  173  A    between atoms: _427  and  _428
REMARK  174  A    between atoms: _427  and  _430
REMARK  175  A    between atoms: _433  and  _435
REMARK  176  A    between atoms: _435  and  _436
REMARK  177  A    between atoms: _438  and  _440
REMARK  178  A    between atoms: _440  and  _441
REMARK  179  A    between atoms: _440  and  _443
REMARK  180  A    between atoms: _443  and  _444
REMARK  181  A    between atoms: _447  and  _449
REMARK  182  A    between atoms: _449  and  _450
REMARK  183  A    between atoms: _449  and  _452
REMARK  184  A    between atoms: _452  and  _453
REMARK  185  A    between atoms: _458  and  _460
REMARK  186  A    between atoms: _460  and  _461
REMARK  187  A    between atoms: _460  and  _463
REMARK  188  A    between atoms: _466  and  _468
REMARK  189  A    between atoms: _468  and  _469
REMARK  190  A    between atoms: _468  and  _471
REMARK  191  A    between atoms: _471  and  _472
REMARK  192  A    between atoms: _472  and  _473
REMARK  193  A    between atoms: _478  and  _480
REMARK  194  A    between atoms: _480  and  _481
REMARK  195  A    between atoms: _485  and  _486
REMARK  196  A    between atoms: _491  and  _493
REMARK  197  A    between atoms: _493  and  _494
REMARK  198  A    between atoms: _493  and  _496
REMARK  199  A    between atoms: _496  and  _497
REMARK  200  A    between atoms: _497  and  _498
REMARK  201  A    between atoms: _501  and  _503
REMARK  202  A    between atoms: _503  and  _504
REMARK  203  A    between atoms: _503  and  _506
REMARK  204  A    between atoms: _509  and  _511
REMARK  205  A    between atoms: _511  and  _512
REMARK  206  A    between atoms: _511  and  _514
REMARK  207  A    between atoms: _514  and  _515
REMARK  208  A    between atoms: _519  and  _520
REMARK  209  A    between atoms: _525  and  _527
REMARK  210  A    between atoms: _527  and  _528
REMARK  211  A    between atoms: _527  and  _530
REMARK  212  A    between atoms: _530  and  _531
REMARK  213  A    between atoms: _534  and  _536
REMARK  214  A    between atoms: _536  and  _537
REMARK  215  A    between atoms: _540  and  _542
REMARK  216  A    between atoms: _542  and  _543
REMARK  217  A    between atoms: _542  and  _545
REMARK  218  A    between atoms: _545  and  _546
REMARK  219  A    between atoms: _549  and  _551
REMARK  220  A    between atoms: _551  and  _552
REMARK  221  A    between atoms: _551  and  _554
REMARK  222  A    between atoms: _554  and  _555
REMARK  223  A    between atoms: _557  and  _559
REMARK  224  A    between atoms: _559  and  _560
REMARK  225  A    between atoms: _562  and  _564
REMARK  226  A    between atoms: _564  and  _565
REMARK  227  A    between atoms: _564  and  _567
REMARK  228  A    between atoms: _567  and  _568
REMARK  229  A    between atoms: _571  and  _573
REMARK  230  A    between atoms: _573  and  _574
REMARK  231  A    between atoms: _573  and  _576
REMARK                            x       y       z     vdW  Elec       q    Type
REMARK                         _______ _______ _______ _____ _____    ______ ____
ROOT
ATOM      1  O   HOH     1       2.677   0.776   6.306  0.00  0.00    +0.000 OA
ENDROOT
TORSDOF 0
REMARK  Name = ../refined-set-2016/4xu0/4xu0_pocket.pdb
REMARK  231 active torsions:
REMARK  status: ('A' for Active; 'I' for Inactive)
REMARK    1  A    between atoms: _1  and  _3
REMARK    2  A    between atoms: _3  and  _4
REMARK    3  A    between atoms: _3  and  _6
REMARK    4  A    between atoms: _6  and  _7
REMARK    5  A    between atoms: _10  and  _12
REMARK    6  A    between atoms: _12  and  _13
REMARK    7  A    between atoms: _15  and  _17
REMARK    8  A    between atoms: _17  and  _18
REMARK    9  A    between atoms: _17  and  _20
REMARK   10  A    between atoms: _20  and  _21
REMARK   11  A    between atoms: _23  and  _25
REMARK   12  A    between atoms: _25  and  _26
REMARK   13  A    between atoms: _25  and  _28
REMARK   14  A    between atoms: _28  and  _29
REMARK   15  A    between atoms: _32  and  _34
REMARK   16  A    between atoms: _34  and  _35
REMARK   17  A    between atoms: _34  and  _37
REMARK   18  A    between atoms: _37  and  _38
REMARK   19  A    between atoms: _43  and  _45
REMARK   20  A    between atoms: _45  and  _46
REMARK   21  A    between atoms: _49  and  _51
REMARK   22  A    between atoms: _51  and  _52
REMARK   23  A    between atoms: _51  and  _54
REMARK   24  A    between atoms: _54  and  _55
REMARK   25  A    between atoms: _58  and  _60
REMARK   26  A    between atoms: _60  and  _61
REMARK   27  A    between atoms: _60  and  _63
REMARK   28  A    between atoms: _63  and  _64
REMARK   29  A    between atoms: _67  and  _69
REMARK   30  A    between atoms: _69  and  _70
REMARK   31  A    between atoms: _69  and  _72
REMARK   32  A    between atoms: _72  and  _73
REMARK   33  A    between atoms: _76  and  _78
REMARK   34  A    between atoms: _78  and  _79
REMARK   35  A    between atoms: _82  and  _84
REMARK   36  A    between atoms: _84  and  _85
REMARK   37  A    between atoms: _84  and  _87
REMARK   38  A    between atoms: _87  and  _88
REMARK   39  A    between atoms: _88  and  _89
REMARK   40  A    between atoms: _94  and  _96
REMARK   41  A    between atoms: _96  and  _97
REMARK   42  A    between atoms: _96  and  _99
REMARK   43  A    between atoms: _99  and  _100
REMARK   44  A    between atoms: _103  and  _105
REMARK   45  A    between atoms: _105  and  _106
REMARK   46  A    between atoms: _109  and  _111
REMARK   47  A    between atoms: _111  and  _112
REMARK   48  A    between atoms: _114  and  _116
REMARK   49  A    between atoms: _116  and  _117
REMARK   50  A    between atoms: _116  and  _119
REMARK   51  A    between atoms: _119  and  _120
REMARK   52  A    between atoms: _120  and  _121
REMARK   53  A    between atoms: _121  and  _122
REMARK   54  A    between atoms: _131  and  _133
REMARK   55  A    between atoms: _133  and  _134
REMARK   56  A    between atoms: _136  and  _138
REMARK   57  A    between atoms: _138  and  _139
REMARK   58  A    between atoms: _138  and  _141
REMARK   59  A    between atoms: _141  and  _142
REMARK   60  A    between atoms: _142  and  _143
REMARK   61  A    between atoms: _143  and  _144
REMARK   62  A    between atoms: _153  and  _155
REMARK   63  A    between atoms: _155  and  _156
REMARK   64  A    between atoms: _155  and  _158
REMARK   65  A    between atoms: _158  and  _159
REMARK   66  A    between atoms: _164  and  _166
REMARK   67  A    between atoms: _166  and  _167
REMARK   68  A    between atoms: _169  and  _171
REMARK   69  A    between atoms: _171  and  _172
REMARK   70  A    between atoms: _171  and  _174
REMARK   71  A    between atoms: _174  and  _175
REMARK   72  A    between atoms: _175  and  _176
REMARK   73  A    between atoms: _176  and  _177
REMARK   74  A    between atoms: _186  and  _188
REMARK   75  A    between atoms: _188  and  _189
REMARK   76  A    between atoms: _191  and  _193
REMARK   77  A    between atoms: _193  and  _194
REMARK   78  A    between atoms: _193  and  _196
REMARK   79  A    between atoms: _196  and  _197
REMARK   80  A    between atoms: _207  and  _209
REMARK   81  A    between atoms: _209  and  _210
REMARK   82  A    between atoms: _213  and  _215
REMARK   83  A    between atoms: _215  and  _216
REMARK   84  A    between atoms: _219  and  _221
REMARK   85  A    between atoms: _221  and  _222
REMARK   86  A    between atoms: _221  and  _224
REMARK   87  A    between atoms: _224  and  _225
REMARK   88  A    between atoms: _228  and  _230
REMARK   89  A    between atoms: _230  and  _231
REMARK   90  A    between atoms: _230  and  _233
REMARK   91  A    between atoms: _233  and  _234
REMARK   92  A    between atoms: _234  and  _235
REMARK   93  A    between atoms: _240  and  _242
REMARK   94  A    between atoms: _242  and  _243
REMARK   95  A    between atoms: _242  and  _245
REMARK   96  A    between atoms: _245  and  _246
REMARK   97  A    between atoms: _249  and  _251
REMARK   98  A    between atoms: _251  and  _252
REMARK   99  A    between atoms: _251  and  _254
REMARK  100  A    between atoms: _254  and  _255
REMARK  101  A    between atoms: _258  and  _260
REMARK  102  A    between atoms: _260  and  _261
REMARK  103  A    between atoms: _260  and  _263
REMARK  104  A    between atoms: _263  and  _264
REMARK  105  A    between atoms: _267  and  _269
REMARK  106  A    between atoms: _269  and  _270
REMARK  107  A    between atoms: _269  and  _272
REMARK  108  A    between atoms: _272  and  _273
REMARK  109  A    between atoms: _275  and  _277
REMARK  110  A    between atoms: _277  and  _278
REMARK  111  A    between atoms: _277  and  _280
REMARK  112  A    between atoms: _283  and  _285
REMARK  113  A    between atoms: _285  and  _286
REMARK  114  A    between atoms: _285  and  _288
REMARK  115  A    between atoms: _288  and  _289
REMARK  116  A    between atoms: _289  and  _290
REMARK  117  A    between atoms: _290  and  _291
REMARK  118  A    between atoms: _291  and  _292
REMARK  119  A    between atoms: _297  and  _298
REMARK  120  A    between atoms: _303  and  _305
REMARK  121  A    between atoms: _305  and  _306
REMARK  122  A    between atoms: _305  and  _308
REMARK  123  A    between atoms: _308  and  _309
REMARK  124  A    between atoms: _314  and  _316
REMARK  125  A    between atoms: _316  and  _317
REMARK  126  A    between atoms: _316  and  _319
REMARK  127  A    between atoms: _319  and  _320
REMARK  128  A    between atoms: _323  and  _325
REMARK  129  A    between atoms: _325  and  _326
REMARK  130  A    between atoms: _325  and  _328
REMARK  131  A    between atoms: _331  and  _333
REMARK  132  A    between atoms: _333  and  _334
REMARK  133  A    between atoms: _336  and  _338
REMARK  134  A    between atoms: _338  and  _339
REMARK  135  A    between atoms: _338  and  _341
REMARK  136  A    between atoms: _341  and  _342
REMARK  137  A    between atoms: _342  and  _343
REMARK  138  A    between atoms: _343  and  _344
REMARK  139  A    between atoms: _344  and  _345
REMARK  140  A    between atoms: _349  and  _351
REMARK  141  A    between atoms: _351  and  _352
REMARK  142  A    between atoms: _351  and  _354
REMARK  143  A    between atoms: _354  and  _355
REMARK  144  A    between atoms: _358  and  _360
REMARK  145  A    between atoms: _360  and  _361
REMARK  146  A    between atoms: _364  and  _366
REMARK  147  A    between atoms: _366  and  _367
REMARK  148  A    between atoms: _369  and  _371
REMARK  149  A    between atoms: _371  and  _372
REMARK  150  A    between atoms: _371  and  _374
REMARK  151  A    between atoms: _374  and  _375
REMARK  152  A    between atoms: _378  and  _380
REMARK  153  A    between atoms: _380  and  _381
REMARK  154  A    between atoms: _380  and  _383
REMARK  155  A    between atoms: _383  and  _384
REMARK  156  A    between atoms: _387  and  _389
REMARK  157  A    between atoms: _389  and  _390
REMARK  158  A    between atoms: _393  and  _395
REMARK  159  A    between atoms: _395  and  _396
REMARK  160  A    between atoms: _395  and  _398
REMARK  161  A    between atoms: _398  and  _399
REMARK  162  A    between atoms: _399  and  _400
REMARK  163  A    between atoms: _403  and  _405
REMARK  164  A    between atoms: _405  and  _406
REMARK  165  A    between atoms: _405  and  _408
REMARK  166  A    between atoms: _411  and  _413
REMARK  167  A    between atoms: _413  and  _414
REMARK  168  A    between atoms: _413  and  _416
REMARK  169  A    between atoms: _416  and  _417
REMARK  170  A    between atoms: _420  and  _422
REMARK  171  A    between atoms: _422  and  _423
REMARK  172  A    between atoms: _425  and  _427
REMARK  173  A    between atoms: _427  and  _428
REMARK  174  A    between atoms: _427  and  _430
REMARK  175  A    between atoms: _433  and  _435
REMARK  176  A    between atoms: _435  and  _436
REMARK  177  A    between atoms: _438  and  _440
REMARK  178  A    between atoms: _440  and  _441
REMARK  179  A    between atoms: _440  and  _443
REMARK  180  A    between atoms: _443  and  _444
REMARK  181  A    between atoms: _447  and  _449
REMARK  182  A    between atoms: _449  and  _450
REMARK  183  A    between atoms: _449  and  _452
REMARK  184  A    between atoms: _452  and  _453
REMARK  185  A    between atoms: _458  and  _460
REMARK  186  A    between atoms: _460  and  _461
REMARK  187  A    between atoms: _460  and  _463
REMARK  188  A    between atoms: _466  and  _468
REMARK  189  A    between atoms: _468  and  _469
REMARK  190  A    between atoms: _468  and  _471
REMARK  191  A    between atoms: _471  and  _472
REMARK  192  A    between atoms: _472  and  _473
REMARK  193  A    between atoms: _478  and  _480
REMARK  194  A    between atoms: _480  and  _481
REMARK  195  A    between atoms: _485  and  _486
REMARK  196  A    between atoms: _491  and  _493
REMARK  197  A    between atoms: _493  and  _494
REMARK  198  A    between atoms: _493  and  _496
REMARK  199  A    between atoms: _496  and  _497
REMARK  200  A    between atoms: _497  and  _498
REMARK  201  A    between atoms: _501  and  _503
REMARK  202  A    between atoms: _503  and  _504
REMARK  203  A    between atoms: _503  and  _506
REMARK  204  A    between atoms: _509  and  _511
REMARK  205  A    between atoms: _511  and  _512
REMARK  206  A    between atoms: _511  and  _514
REMARK  207  A    between atoms: _514  and  _515
REMARK  208  A    between atoms: _519  and  _520
REMARK  209  A    between atoms: _525  and  _527
REMARK  210  A    between atoms: _527  and  _528
REMARK  211  A    between atoms: _527  and  _530
REMARK  212  A    between atoms: _530  and  _531
REMARK  213  A    between atoms: _534  and  _536
REMARK  214  A    between atoms: _536  and  _537
REMARK  215  A    between atoms: _540  and  _542
REMARK  216  A    between atoms: _542  and  _543
REMARK  217  A    between atoms: _542  and  _545
REMARK  218  A    between atoms: _545  and  _546
REMARK  219  A    between atoms: _549  and  _551
REMARK  220  A    between atoms: _551  and  _552
REMARK  221  A    between atoms: _551  and  _554
REMARK  222  A    between atoms: _554  and  _555
REMARK  223  A    between atoms: _557  and  _559
REMARK  224  A    between atoms: _559  and  _560
REMARK  225  A    between atoms: _562  and  _564
REMARK  226  A    between atoms: _564  and  _565
REMARK  227  A    between atoms: _564  and  _567
REMARK  228  A    between atoms: _567  and  _568
REMARK  229  A    between atoms: _571  and  _573
REMARK  230  A    between atoms: _573  and  _574
REMARK  231  A    between atoms: _573  and  _576
REMARK                            x       y       z     vdW  Elec       q    Type
REMARK                         _______ _______ _______ _____ _____    ______ ____
ROOT
ATOM      1  O   HOH     1      -4.369 -11.712   1.812  0.00  0.00    +0.000 OA
ENDROOT
TORSDOF 0
REMARK  Name = ../refined-set-2016/4xu0/4xu0_pocket.pdb
REMARK  231 active torsions:
REMARK  status: ('A' for Active; 'I' for Inactive)
REMARK    1  A    between atoms: _1  and  _3
REMARK    2  A    between atoms: _3  and  _4
REMARK    3  A    between atoms: _3  and  _6
REMARK    4  A    between atoms: _6  and  _7
REMARK    5  A    between atoms: _10  and  _12
REMARK    6  A    between atoms: _12  and  _13
REMARK    7  A    between atoms: _15  and  _17
REMARK    8  A    between atoms: _17  and  _18
REMARK    9  A    between atoms: _17  and  _20
REMARK   10  A    between atoms: _20  and  _21
REMARK   11  A    between atoms: _23  and  _25
REMARK   12  A    between atoms: _25  and  _26
REMARK   13  A    between atoms: _25  and  _28
REMARK   14  A    between atoms: _28  and  _29
REMARK   15  A    between atoms: _32  and  _34
REMARK   16  A    between atoms: _34  and  _35
REMARK   17  A    between atoms: _34  and  _37
REMARK   18  A    between atoms: _37  and  _38
REMARK   19  A    between atoms: _43  and  _45
REMARK   20  A    between atoms: _45  and  _46
REMARK   21  A    between atoms: _49  and  _51
REMARK   22  A    between atoms: _51  and  _52
REMARK   23  A    between atoms: _51  and  _54
REMARK   24  A    between atoms: _54  and  _55
REMARK   25  A    between atoms: _58  and  _60
REMARK   26  A    between atoms: _60  and  _61
REMARK   27  A    between atoms: _60  and  _63
REMARK   28  A    between atoms: _63  and  _64
REMARK   29  A    between atoms: _67  and  _69
REMARK   30  A    between atoms: _69  and  _70
REMARK   31  A    between atoms: _69  and  _72
REMARK   32  A    between atoms: _72  and  _73
REMARK   33  A    between atoms: _76  and  _78
REMARK   34  A    between atoms: _78  and  _79
REMARK   35  A    between atoms: _82  and  _84
REMARK   36  A    between atoms: _84  and  _85
REMARK   37  A    between atoms: _84  and  _87
REMARK   38  A    between atoms: _87  and  _88
REMARK   39  A    between atoms: _88  and  _89
REMARK   40  A    between atoms: _94  and  _96
REMARK   41  A    between atoms: _96  and  _97
REMARK   42  A    between atoms: _96  and  _99
REMARK   43  A    between atoms: _99  and  _100
REMARK   44  A    between atoms: _103  and  _105
REMARK   45  A    between atoms: _105  and  _106
REMARK   46  A    between atoms: _109  and  _111
REMARK   47  A    between atoms: _111  and  _112
REMARK   48  A    between atoms: _114  and  _116
REMARK   49  A    between atoms: _116  and  _117
REMARK   50  A    between atoms: _116  and  _119
REMARK   51  A    between atoms: _119  and  _120
REMARK   52  A    between atoms: _120  and  _121
REMARK   53  A    between atoms: _121  and  _122
REMARK   54  A    between atoms: _131  and  _133
REMARK   55  A    between atoms: _133  and  _134
REMARK   56  A    between atoms: _136  and  _138
REMARK   57  A    between atoms: _138  and  _139
REMARK   58  A    between atoms: _138  and  _141
REMARK   59  A    between atoms: _141  and  _142
REMARK   60  A    between atoms: _142  and  _143
REMARK   61  A    between atoms: _143  and  _144
REMARK   62  A    between atoms: _153  and  _155
REMARK   63  A    between atoms: _155  and  _156
REMARK   64  A    between atoms: _155  and  _158
REMARK   65  A    between atoms: _158  and  _159
REMARK   66  A    between atoms: _164  and  _166
REMARK   67  A    between atoms: _166  and  _167
REMARK   68  A    between atoms: _169  and  _171
REMARK   69  A    between atoms: _171  and  _172
REMARK   70  A    between atoms: _171  and  _174
REMARK   71  A    between atoms: _174  and  _175
REMARK   72  A    between atoms: _175  and  _176
REMARK   73  A    between atoms: _176  and  _177
REMARK   74  A    between atoms: _186  and  _188
REMARK   75  A    between atoms: _188  and  _189
REMARK   76  A    between atoms: _191  and  _193
REMARK   77  A    between atoms: _193  and  _194
REMARK   78  A    between atoms: _193  and  _196
REMARK   79  A    between atoms: _196  and  _197
REMARK   80  A    between atoms: _207  and  _209
REMARK   81  A    between atoms: _209  and  _210
REMARK   82  A    between atoms: _213  and  _215
REMARK   83  A    between atoms: _215  and  _216
REMARK   84  A    between atoms: _219  and  _221
REMARK   85  A    between atoms: _221  and  _222
REMARK   86  A    between atoms: _221  and  _224
REMARK   87  A    between atoms: _224  and  _225
REMARK   88  A    between atoms: _228  and  _230
REMARK   89  A    between atoms: _230  and  _231
REMARK   90  A    between atoms: _230  and  _233
REMARK   91  A    between atoms: _233  and  _234
REMARK   92  A    between atoms: _234  and  _235
REMARK   93  A    between atoms: _240  and  _242
REMARK   94  A    between atoms: _242  and  _243
REMARK   95  A    between atoms: _242  and  _245
REMARK   96  A    between atoms: _245  and  _246
REMARK   97  A    between atoms: _249  and  _251
REMARK   98  A    between atoms: _251  and  _252
REMARK   99  A    between atoms: _251  and  _254
REMARK  100  A    between atoms: _254  and  _255
REMARK  101  A    between atoms: _258  and  _260
REMARK  102  A    between atoms: _260  and  _261
REMARK  103  A    between atoms: _260  and  _263
REMARK  104  A    between atoms: _263  and  _264
REMARK  105  A    between atoms: _267  and  _269
REMARK  106  A    between atoms: _269  and  _270
REMARK  107  A    between atoms: _269  and  _272
REMARK  108  A    between atoms: _272  and  _273
REMARK  109  A    between atoms: _275  and  _277
REMARK  110  A    between atoms: _277  and  _278
REMARK  111  A    between atoms: _277  and  _280
REMARK  112  A    between atoms: _283  and  _285
REMARK  113  A    between atoms: _285  and  _286
REMARK  114  A    between atoms: _285  and  _288
REMARK  115  A    between atoms: _288  and  _289
REMARK  116  A    between atoms: _289  and  _290
REMARK  117  A    between atoms: _290  and  _291
REMARK  118  A    between atoms: _291  and  _292
REMARK  119  A    between atoms: _297  and  _298
REMARK  120  A    between atoms: _303  and  _305
REMARK  121  A    between atoms: _305  and  _306
REMARK  122  A    between atoms: _305  and  _308
REMARK  123  A    between atoms: _308  and  _309
REMARK  124  A    between atoms: _314  and  _316
REMARK  125  A    between atoms: _316  and  _317
REMARK  126  A    between atoms: _316  and  _319
REMARK  127  A    between atoms: _319  and  _320
REMARK  128  A    between atoms: _323  and  _325
REMARK  129  A    between atoms: _325  and  _326
REMARK  130  A    between atoms: _325  and  _328
REMARK  131  A    between atoms: _331  and  _333
REMARK  132  A    between atoms: _333  and  _334
REMARK  133  A    between atoms: _336  and  _338
REMARK  134  A    between atoms: _338  and  _339
REMARK  135  A    between atoms: _338  and  _341
REMARK  136  A    between atoms: _341  and  _342
REMARK  137  A    between atoms: _342  and  _343
REMARK  138  A    between atoms: _343  and  _344
REMARK  139  A    between atoms: _344  and  _345
REMARK  140  A    between atoms: _349  and  _351
REMARK  141  A    between atoms: _351  and  _352
REMARK  142  A    between atoms: _351  and  _354
REMARK  143  A    between atoms: _354  and  _355
REMARK  144  A    between atoms: _358  and  _360
REMARK  145  A    between atoms: _360  and  _361
REMARK  146  A    between atoms: _364  and  _366
REMARK  147  A    between atoms: _366  and  _367
REMARK  148  A    between atoms: _369  and  _371
REMARK  149  A    between atoms: _371  and  _372
REMARK  150  A    between atoms: _371  and  _374
REMARK  151  A    between atoms: _374  and  _375
REMARK  152  A    between atoms: _378  and  _380
REMARK  153  A    between atoms: _380  and  _381
REMARK  154  A    between atoms: _380  and  _383
REMARK  155  A    between atoms: _383  and  _384
REMARK  156  A    between atoms: _387  and  _389
REMARK  157  A    between atoms: _389  and  _390
REMARK  158  A    between atoms: _393  and  _395
REMARK  159  A    between atoms: _395  and  _396
REMARK  160  A    between atoms: _395  and  _398
REMARK  161  A    between atoms: _398  and  _399
REMARK  162  A    between atoms: _399  and  _400
REMARK  163  A    between atoms: _403  and  _405
REMARK  164  A    between atoms: _405  and  _406
REMARK  165  A    between atoms: _405  and  _408
REMARK  166  A    between atoms: _411  and  _413
REMARK  167  A    between atoms: _413  and  _414
REMARK  168  A    between atoms: _413  and  _416
REMARK  169  A    between atoms: _416  and  _417
REMARK  170  A    between atoms: _420  and  _422
REMARK  171  A    between atoms: _422  and  _423
REMARK  172  A    between atoms: _425  and  _427
REMARK  173  A    between atoms: _427  and  _428
REMARK  174  A    between atoms: _427  and  _430
REMARK  175  A    between atoms: _433  and  _435
REMARK  176  A    between atoms: _435  and  _436
REMARK  177  A    between atoms: _438  and  _440
REMARK  178  A    between atoms: _440  and  _441
REMARK  179  A    between atoms: _440  and  _443
REMARK  180  A    between atoms: _443  and  _444
REMARK  181  A    between atoms: _447  and  _449
REMARK  182  A    between atoms: _449  and  _450
REMARK  183  A    between atoms: _449  and  _452
REMARK  184  A    between atoms: _452  and  _453
REMARK  185  A    between atoms: _458  and  _460
REMARK  186  A    between atoms: _460  and  _461
REMARK  187  A    between atoms: _460  and  _463
REMARK  188  A    between atoms: _466  and  _468
REMARK  189  A    between atoms: _468  and  _469
REMARK  190  A    between atoms: _468  and  _471
REMARK  191  A    between atoms: _471  and  _472
REMARK  192  A    between atoms: _472  and  _473
REMARK  193  A    between atoms: _478  and  _480
REMARK  194  A    between atoms: _480  and  _481
REMARK  195  A    between atoms: _485  and  _486
REMARK  196  A    between atoms: _491  and  _493
REMARK  197  A    between atoms: _493  and  _494
REMARK  198  A    between atoms: _493  and  _496
REMARK  199  A    between atoms: _496  and  _497
REMARK  200  A    between atoms: _497  and  _498
REMARK  201  A    between atoms: _501  and  _503
REMARK  202  A    between atoms: _503  and  _504
REMARK  203  A    between atoms: _503  and  _506
REMARK  204  A    between atoms: _509  and  _511
REMARK  205  A    between atoms: _511  and  _512
REMARK  206  A    between atoms: _511  and  _514
REMARK  207  A    between atoms: _514  and  _515
REMARK  208  A    between atoms: _519  and  _520
REMARK  209  A    between atoms: _525  and  _527
REMARK  210  A    between atoms: _527  and  _528
REMARK  211  A    between atoms: _527  and  _530
REMARK  212  A    between atoms: _530  and  _531
REMARK  213  A    between atoms: _534  and  _536
REMARK  214  A    between atoms: _536  and  _537
REMARK  215  A    between atoms: _540  and  _542
REMARK  216  A    between atoms: _542  and  _543
REMARK  217  A    between atoms: _542  and  _545
REMARK  218  A    between atoms: _545  and  _546
REMARK  219  A    between atoms: _549  and  _551
REMARK  220  A    between atoms: _551  and  _552
REMARK  221  A    between atoms: _551  and  _554
REMARK  222  A    between atoms: _554  and  _555
REMARK  223  A    between atoms: _557  and  _559
REMARK  224  A    between atoms: _559  and  _560
REMARK  225  A    between atoms: _562  and  _564
REMARK  226  A    between atoms: _564  and  _565
REMARK  227  A    between atoms: _564  and  _567
REMARK  228  A    between atoms: _567  and  _568
REMARK  229  A    between atoms: _571  and  _573
REMARK  230  A    between atoms: _573  and  _574
REMARK  231  A    between atoms: _573  and  _576
REMARK                            x       y       z     vdW  Elec       q    Type
REMARK                         _______ _______ _______ _____ _____    ______ ____
ROOT
ATOM      1  O   HOH     1       4.675  -5.351   9.340  0.00  0.00    +0.000 OA
ENDROOT
TORSDOF 0
REMARK  Name = ../refined-set-2016/4xu0/4xu0_pocket.pdb
REMARK  231 active torsions:
REMARK  status: ('A' for Active; 'I' for Inactive)
REMARK    1  A    between atoms: _1  and  _3
REMARK    2  A    between atoms: _3  and  _4
REMARK    3  A    between atoms: _3  and  _6
REMARK    4  A    between atoms: _6  and  _7
REMARK    5  A    between atoms: _10  and  _12
REMARK    6  A    between atoms: _12  and  _13
REMARK    7  A    between atoms: _15  and  _17
REMARK    8  A    between atoms: _17  and  _18
REMARK    9  A    between atoms: _17  and  _20
REMARK   10  A    between atoms: _20  and  _21
REMARK   11  A    between atoms: _23  and  _25
REMARK   12  A    between atoms: _25  and  _26
REMARK   13  A    between atoms: _25  and  _28
REMARK   14  A    between atoms: _28  and  _29
REMARK   15  A    between atoms: _32  and  _34
REMARK   16  A    between atoms: _34  and  _35
REMARK   17  A    between atoms: _34  and  _37
REMARK   18  A    between atoms: _37  and  _38
REMARK   19  A    between atoms: _43  and  _45
REMARK   20  A    between atoms: _45  and  _46
REMARK   21  A    between atoms: _49  and  _51
REMARK   22  A    between atoms: _51  and  _52
REMARK   23  A    between atoms: _51  and  _54
REMARK   24  A    between atoms: _54  and  _55
REMARK   25  A    between atoms: _58  and  _60
REMARK   26  A    between atoms: _60  and  _61
REMARK   27  A    between atoms: _60  and  _63
REMARK   28  A    between atoms: _63  and  _64
REMARK   29  A    between atoms: _67  and  _69
REMARK   30  A    between atoms: _69  and  _70
REMARK   31  A    between atoms: _69  and  _72
REMARK   32  A    between atoms: _72  and  _73
REMARK   33  A    between atoms: _76  and  _78
REMARK   34  A    between atoms: _78  and  _79
REMARK   35  A    between atoms: _82  and  _84
REMARK   36  A    between atoms: _84  and  _85
REMARK   37  A    between atoms: _84  and  _87
REMARK   38  A    between atoms: _87  and  _88
REMARK   39  A    between atoms: _88  and  _89
REMARK   40  A    between atoms: _94  and  _96
REMARK   41  A    between atoms: _96  and  _97
REMARK   42  A    between atoms: _96  and  _99
REMARK   43  A    between atoms: _99  and  _100
REMARK   44  A    between atoms: _103  and  _105
REMARK   45  A    between atoms: _105  and  _106
REMARK   46  A    between atoms: _109  and  _111
REMARK   47  A    between atoms: _111  and  _112
REMARK   48  A    between atoms: _114  and  _116
REMARK   49  A    between atoms: _116  and  _117
REMARK   50  A    between atoms: _116  and  _119
REMARK   51  A    between atoms: _119  and  _120
REMARK   52  A    between atoms: _120  and  _121
REMARK   53  A    between atoms: _121  and  _122
REMARK   54  A    between atoms: _131  and  _133
REMARK   55  A    between atoms: _133  and  _134
REMARK   56  A    between atoms: _136  and  _138
REMARK   57  A    between atoms: _138  and  _139
REMARK   58  A    between atoms: _138  and  _141
REMARK   59  A    between atoms: _141  and  _142
REMARK   60  A    between atoms: _142  and  _143
REMARK   61  A    between atoms: _143  and  _144
REMARK   62  A    between atoms: _153  and  _155
REMARK   63  A    between atoms: _155  and  _156
REMARK   64  A    between atoms: _155  and  _158
REMARK   65  A    between atoms: _158  and  _159
REMARK   66  A    between atoms: _164  and  _166
REMARK   67  A    between atoms: _166  and  _167
REMARK   68  A    between atoms: _169  and  _171
REMARK   69  A    between atoms: _171  and  _172
REMARK   70  A    between atoms: _171  and  _174
REMARK   71  A    between atoms: _174  and  _175
REMARK   72  A    between atoms: _175  and  _176
REMARK   73  A    between atoms: _176  and  _177
REMARK   74  A    between atoms: _186  and  _188
REMARK   75  A    between atoms: _188  and  _189
REMARK   76  A    between atoms: _191  and  _193
REMARK   77  A    between atoms: _193  and  _194
REMARK   78  A    between atoms: _193  and  _196
REMARK   79  A    between atoms: _196  and  _197
REMARK   80  A    between atoms: _207  and  _209
REMARK   81  A    between atoms: _209  and  _210
REMARK   82  A    between atoms: _213  and  _215
REMARK   83  A    between atoms: _215  and  _216
REMARK   84  A    between atoms: _219  and  _221
REMARK   85  A    between atoms: _221  and  _222
REMARK   86  A    between atoms: _221  and  _224
REMARK   87  A    between atoms: _224  and  _225
REMARK   88  A    between atoms: _228  and  _230
REMARK   89  A    between atoms: _230  and  _231
REMARK   90  A    between atoms: _230  and  _233
REMARK   91  A    between atoms: _233  and  _234
REMARK   92  A    between atoms: _234  and  _235
REMARK   93  A    between atoms: _240  and  _242
REMARK   94  A    between atoms: _242  and  _243
REMARK   95  A    between atoms: _242  and  _245
REMARK   96  A    between atoms: _245  and  _246
REMARK   97  A    between atoms: _249  and  _251
REMARK   98  A    between atoms: _251  and  _252
REMARK   99  A    between atoms: _251  and  _254
REMARK  100  A    between atoms: _254  and  _255
REMARK  101  A    between atoms: _258  and  _260
REMARK  102  A    between atoms: _260  and  _261
REMARK  103  A    between atoms: _260  and  _263
REMARK  104  A    between atoms: _263  and  _264
REMARK  105  A    between atoms: _267  and  _269
REMARK  106  A    between atoms: _269  and  _270
REMARK  107  A    between atoms: _269  and  _272
REMARK  108  A    between atoms: _272  and  _273
REMARK  109  A    between atoms: _275  and  _277
REMARK  110  A    between atoms: _277  and  _278
REMARK  111  A    between atoms: _277  and  _280
REMARK  112  A    between atoms: _283  and  _285
REMARK  113  A    between atoms: _285  and  _286
REMARK  114  A    between atoms: _285  and  _288
REMARK  115  A    between atoms: _288  and  _289
REMARK  116  A    between atoms: _289  and  _290
REMARK  117  A    between atoms: _290  and  _291
REMARK  118  A    between atoms: _291  and  _292
REMARK  119  A    between atoms: _297  and  _298
REMARK  120  A    between atoms: _303  and  _305
REMARK  121  A    between atoms: _305  and  _306
REMARK  122  A    between atoms: _305  and  _308
REMARK  123  A    between atoms: _308  and  _309
REMARK  124  A    between atoms: _314  and  _316
REMARK  125  A    between atoms: _316  and  _317
REMARK  126  A    between atoms: _316  and  _319
REMARK  127  A    between atoms: _319  and  _320
REMARK  128  A    between atoms: _323  and  _325
REMARK  129  A    between atoms: _325  and  _326
REMARK  130  A    between atoms: _325  and  _328
REMARK  131  A    between atoms: _331  and  _333
REMARK  132  A    between atoms: _333  and  _334
REMARK  133  A    between atoms: _336  and  _338
REMARK  134  A    between atoms: _338  and  _339
REMARK  135  A    between atoms: _338  and  _341
REMARK  136  A    between atoms: _341  and  _342
REMARK  137  A    between atoms: _342  and  _343
REMARK  138  A    between atoms: _343  and  _344
REMARK  139  A    between atoms: _344  and  _345
REMARK  140  A    between atoms: _349  and  _351
REMARK  141  A    between atoms: _351  and  _352
REMARK  142  A    between atoms: _351  and  _354
REMARK  143  A    between atoms: _354  and  _355
REMARK  144  A    between atoms: _358  and  _360
REMARK  145  A    between atoms: _360  and  _361
REMARK  146  A    between atoms: _364  and  _366
REMARK  147  A    between atoms: _366  and  _367
REMARK  148  A    between atoms: _369  and  _371
REMARK  149  A    between atoms: _371  and  _372
REMARK  150  A    between atoms: _371  and  _374
REMARK  151  A    between atoms: _374  and  _375
REMARK  152  A    between atoms: _378  and  _380
REMARK  153  A    between atoms: _380  and  _381
REMARK  154  A    between atoms: _380  and  _383
REMARK  155  A    between atoms: _383  and  _384
REMARK  156  A    between atoms: _387  and  _389
REMARK  157  A    between atoms: _389  and  _390
REMARK  158  A    between atoms: _393  and  _395
REMARK  159  A    between atoms: _395  and  _396
REMARK  160  A    between atoms: _395  and  _398
REMARK  161  A    between atoms: _398  and  _399
REMARK  162  A    between atoms: _399  and  _400
REMARK  163  A    between atoms: _403  and  _405
REMARK  164  A    between atoms: _405  and  _406
REMARK  165  A    between atoms: _405  and  _408
REMARK  166  A    between atoms: _411  and  _413
REMARK  167  A    between atoms: _413  and  _414
REMARK  168  A    between atoms: _413  and  _416
REMARK  169  A    between atoms: _416  and  _417
REMARK  170  A    between atoms: _420  and  _422
REMARK  171  A    between atoms: _422  and  _423
REMARK  172  A    between atoms: _425  and  _427
REMARK  173  A    between atoms: _427  and  _428
REMARK  174  A    between atoms: _427  and  _430
REMARK  175  A    between atoms: _433  and  _435
REMARK  176  A    between atoms: _435  and  _436
REMARK  177  A    between atoms: _438  and  _440
REMARK  178  A    between atoms: _440  and  _441
REMARK  179  A    between atoms: _440  and  _443
REMARK  180  A    between atoms: _443  and  _444
REMARK  181  A    between atoms: _447  and  _449
REMARK  182  A    between atoms: _449  and  _450
REMARK  183  A    between atoms: _449  and  _452
REMARK  184  A    between atoms: _452  and  _453
REMARK  185  A    between atoms: _458  and  _460
REMARK  186  A    between atoms: _460  and  _461
REMARK  187  A    between atoms: _460  and  _463
REMARK  188  A    between atoms: _466  and  _468
REMARK  189  A    between atoms: _468  and  _469
REMARK  190  A    between atoms: _468  and  _471
REMARK  191  A    between atoms: _471  and  _472
REMARK  192  A    between atoms: _472  and  _473
REMARK  193  A    between atoms: _478  and  _480
REMARK  194  A    between atoms: _480  and  _481
REMARK  195  A    between atoms: _485  and  _486
REMARK  196  A    between atoms: _491  and  _493
REMARK  197  A    between atoms: _493  and  _494
REMARK  198  A    between atoms: _493  and  _496
REMARK  199  A    between atoms: _496  and  _497
REMARK  200  A    between atoms: _497  and  _498
REMARK  201  A    between atoms: _501  and  _503
REMARK  202  A    between atoms: _503  and  _504
REMARK  203  A    between atoms: _503  and  _506
REMARK  204  A    between atoms: _509  and  _511
REMARK  205  A    between atoms: _511  and  _512
REMARK  206  A    between atoms: _511  and  _514
REMARK  207  A    between atoms: _514  and  _515
REMARK  208  A    between atoms: _519  and  _520
REMARK  209  A    between atoms: _525  and  _527
REMARK  210  A    between atoms: _527  and  _528
REMARK  211  A    between atoms: _527  and  _530
REMARK  212  A    between atoms: _530  and  _531
REMARK  213  A    between atoms: _534  and  _536
REMARK  214  A    between atoms: _536  and  _537
REMARK  215  A    between atoms: _540  and  _542
REMARK  216  A    between atoms: _542  and  _543
REMARK  217  A    between atoms: _542  and  _545
REMARK  218  A    between atoms: _545  and  _546
REMARK  219  A    between atoms: _549  and  _551
REMARK  220  A    between atoms: _551  and  _552
REMARK  221  A    between atoms: _551  and  _554
REMARK  222  A    between atoms: _554  and  _555
REMARK  223  A    between atoms: _557  and  _559
REMARK  224  A    between atoms: _559  and  _560
REMARK  225  A    between atoms: _562  and  _564
REMARK  226  A    between atoms: _564  and  _565
REMARK  227  A    between atoms: _564  and  _567
REMARK  228  A    between atoms: _567  and  _568
REMARK  229  A    between atoms: _571  and  _573
REMARK  230  A    between atoms: _573  and  _574
REMARK  231  A    between atoms: _573  and  _576
REMARK                            x       y       z     vdW  Elec       q    Type
REMARK                         _______ _______ _______ _____ _____    ______ ____
ROOT
ATOM      1  O   HOH     1      -5.031  -6.955   2.069  0.00  0.00    +0.000 OA
ENDROOT
TORSDOF 0
REMARK  Name = ../refined-set-2016/4xu0/4xu0_pocket.pdb
REMARK  231 active torsions:
REMARK  status: ('A' for Active; 'I' for Inactive)
REMARK    1  A    between atoms: _1  and  _3
REMARK    2  A    between atoms: _3  and  _4
REMARK    3  A    between atoms: _3  and  _6
REMARK    4  A    between atoms: _6  and  _7
REMARK    5  A    between atoms: _10  and  _12
REMARK    6  A    between atoms: _12  and  _13
REMARK    7  A    between atoms: _15  and  _17
REMARK    8  A    between atoms: _17  and  _18
REMARK    9  A    between atoms: _17  and  _20
REMARK   10  A    between atoms: _20  and  _21
REMARK   11  A    between atoms: _23  and  _25
REMARK   12  A    between atoms: _25  and  _26
REMARK   13  A    between atoms: _25  and  _28
REMARK   14  A    between atoms: _28  and  _29
REMARK   15  A    between atoms: _32  and  _34
REMARK   16  A    between atoms: _34  and  _35
REMARK   17  A    between atoms: _34  and  _37
REMARK   18  A    between atoms: _37  and  _38
REMARK   19  A    between atoms: _43  and  _45
REMARK   20  A    between atoms: _45  and  _46
REMARK   21  A    between atoms: _49  and  _51
REMARK   22  A    between atoms: _51  and  _52
REMARK   23  A    between atoms: _51  and  _54
REMARK   24  A    between atoms: _54  and  _55
REMARK   25  A    between atoms: _58  and  _60
REMARK   26  A    between atoms: _60  and  _61
REMARK   27  A    between atoms: _60  and  _63
REMARK   28  A    between atoms: _63  and  _64
REMARK   29  A    between atoms: _67  and  _69
REMARK   30  A    between atoms: _69  and  _70
REMARK   31  A    between atoms: _69  and  _72
REMARK   32  A    between atoms: _72  and  _73
REMARK   33  A    between atoms: _76  and  _78
REMARK   34  A    between atoms: _78  and  _79
REMARK   35  A    between atoms: _82  and  _84
REMARK   36  A    between atoms: _84  and  _85
REMARK   37  A    between atoms: _84  and  _87
REMARK   38  A    between atoms: _87  and  _88
REMARK   39  A    between atoms: _88  and  _89
REMARK   40  A    between atoms: _94  and  _96
REMARK   41  A    between atoms: _96  and  _97
REMARK   42  A    between atoms: _96  and  _99
REMARK   43  A    between atoms: _99  and  _100
REMARK   44  A    between atoms: _103  and  _105
REMARK   45  A    between atoms: _105  and  _106
REMARK   46  A    between atoms: _109  and  _111
REMARK   47  A    between atoms: _111  and  _112
REMARK   48  A    between atoms: _114  and  _116
REMARK   49  A    between atoms: _116  and  _117
REMARK   50  A    between atoms: _116  and  _119
REMARK   51  A    between atoms: _119  and  _120
REMARK   52  A    between atoms: _120  and  _121
REMARK   53  A    between atoms: _121  and  _122
REMARK   54  A    between atoms: _131  and  _133
REMARK   55  A    between atoms: _133  and  _134
REMARK   56  A    between atoms: _136  and  _138
REMARK   57  A    between atoms: _138  and  _139
REMARK   58  A    between atoms: _138  and  _141
REMARK   59  A    between atoms: _141  and  _142
REMARK   60  A    between atoms: _142  and  _143
REMARK   61  A    between atoms: _143  and  _144
REMARK   62  A    between atoms: _153  and  _155
REMARK   63  A    between atoms: _155  and  _156
REMARK   64  A    between atoms: _155  and  _158
REMARK   65  A    between atoms: _158  and  _159
REMARK   66  A    between atoms: _164  and  _166
REMARK   67  A    between atoms: _166  and  _167
REMARK   68  A    between atoms: _169  and  _171
REMARK   69  A    between atoms: _171  and  _172
REMARK   70  A    between atoms: _171  and  _174
REMARK   71  A    between atoms: _174  and  _175
REMARK   72  A    between atoms: _175  and  _176
REMARK   73  A    between atoms: _176  and  _177
REMARK   74  A    between atoms: _186  and  _188
REMARK   75  A    between atoms: _188  and  _189
REMARK   76  A    between atoms: _191  and  _193
REMARK   77  A    between atoms: _193  and  _194
REMARK   78  A    between atoms: _193  and  _196
REMARK   79  A    between atoms: _196  and  _197
REMARK   80  A    between atoms: _207  and  _209
REMARK   81  A    between atoms: _209  and  _210
REMARK   82  A    between atoms: _213  and  _215
REMARK   83  A    between atoms: _215  and  _216
REMARK   84  A    between atoms: _219  and  _221
REMARK   85  A    between atoms: _221  and  _222
REMARK   86  A    between atoms: _221  and  _224
REMARK   87  A    between atoms: _224  and  _225
REMARK   88  A    between atoms: _228  and  _230
REMARK   89  A    between atoms: _230  and  _231
REMARK   90  A    between atoms: _230  and  _233
REMARK   91  A    between atoms: _233  and  _234
REMARK   92  A    between atoms: _234  and  _235
REMARK   93  A    between atoms: _240  and  _242
REMARK   94  A    between atoms: _242  and  _243
REMARK   95  A    between atoms: _242  and  _245
REMARK   96  A    between atoms: _245  and  _246
REMARK   97  A    between atoms: _249  and  _251
REMARK   98  A    between atoms: _251  and  _252
REMARK   99  A    between atoms: _251  and  _254
REMARK  100  A    between atoms: _254  and  _255
REMARK  101  A    between atoms: _258  and  _260
REMARK  102  A    between atoms: _260  and  _261
REMARK  103  A    between atoms: _260  and  _263
REMARK  104  A    between atoms: _263  and  _264
REMARK  105  A    between atoms: _267  and  _269
REMARK  106  A    between atoms: _269  and  _270
REMARK  107  A    between atoms: _269  and  _272
REMARK  108  A    between atoms: _272  and  _273
REMARK  109  A    between atoms: _275  and  _277
REMARK  110  A    between atoms: _277  and  _278
REMARK  111  A    between atoms: _277  and  _280
REMARK  112  A    between atoms: _283  and  _285
REMARK  113  A    between atoms: _285  and  _286
REMARK  114  A    between atoms: _285  and  _288
REMARK  115  A    between atoms: _288  and  _289
REMARK  116  A    between atoms: _289  and  _290
REMARK  117  A    between atoms: _290  and  _291
REMARK  118  A    between atoms: _291  and  _292
REMARK  119  A    between atoms: _297  and  _298
REMARK  120  A    between atoms: _303  and  _305
REMARK  121  A    between atoms: _305  and  _306
REMARK  122  A    between atoms: _305  and  _308
REMARK  123  A    between atoms: _308  and  _309
REMARK  124  A    between atoms: _314  and  _316
REMARK  125  A    between atoms: _316  and  _317
REMARK  126  A    between atoms: _316  and  _319
REMARK  127  A    between atoms: _319  and  _320
REMARK  128  A    between atoms: _323  and  _325
REMARK  129  A    between atoms: _325  and  _326
REMARK  130  A    between atoms: _325  and  _328
REMARK  131  A    between atoms: _331  and  _333
REMARK  132  A    between atoms: _333  and  _334
REMARK  133  A    between atoms: _336  and  _338
REMARK  134  A    between atoms: _338  and  _339
REMARK  135  A    between atoms: _338  and  _341
REMARK  136  A    between atoms: _341  and  _342
REMARK  137  A    between atoms: _342  and  _343
REMARK  138  A    between atoms: _343  and  _344
REMARK  139  A    between atoms: _344  and  _345
REMARK  140  A    between atoms: _349  and  _351
REMARK  141  A    between atoms: _351  and  _352
REMARK  142  A    between atoms: _351  and  _354
REMARK  143  A    between atoms: _354  and  _355
REMARK  144  A    between atoms: _358  and  _360
REMARK  145  A    between atoms: _360  and  _361
REMARK  146  A    between atoms: _364  and  _366
REMARK  147  A    between atoms: _366  and  _367
REMARK  148  A    between atoms: _369  and  _371
REMARK  149  A    between atoms: _371  and  _372
REMARK  150  A    between atoms: _371  and  _374
REMARK  151  A    between atoms: _374  and  _375
REMARK  152  A    between atoms: _378  and  _380
REMARK  153  A    between atoms: _380  and  _381
REMARK  154  A    between atoms: _380  and  _383
REMARK  155  A    between atoms: _383  and  _384
REMARK  156  A    between atoms: _387  and  _389
REMARK  157  A    between atoms: _389  and  _390
REMARK  158  A    between atoms: _393  and  _395
REMARK  159  A    between atoms: _395  and  _396
REMARK  160  A    between atoms: _395  and  _398
REMARK  161  A    between atoms: _398  and  _399
REMARK  162  A    between atoms: _399  and  _400
REMARK  163  A    between atoms: _403  and  _405
REMARK  164  A    between atoms: _405  and  _406
REMARK  165  A    between atoms: _405  and  _408
REMARK  166  A    between atoms: _411  and  _413
REMARK  167  A    between atoms: _413  and  _414
REMARK  168  A    between atoms: _413  and  _416
REMARK  169  A    between atoms: _416  and  _417
REMARK  170  A    between atoms: _420  and  _422
REMARK  171  A    between atoms: _422  and  _423
REMARK  172  A    between atoms: _425  and  _427
REMARK  173  A    between atoms: _427  and  _428
REMARK  174  A    between atoms: _427  and  _430
REMARK  175  A    between atoms: _433  and  _435
REMARK  176  A    between atoms: _435  and  _436
REMARK  177  A    between atoms: _438  and  _440
REMARK  178  A    between atoms: _440  and  _441
REMARK  179  A    between atoms: _440  and  _443
REMARK  180  A    between atoms: _443  and  _444
REMARK  181  A    between atoms: _447  and  _449
REMARK  182  A    between atoms: _449  and  _450
REMARK  183  A    between atoms: _449  and  _452
REMARK  184  A    between atoms: _452  and  _453
REMARK  185  A    between atoms: _458  and  _460
REMARK  186  A    between atoms: _460  and  _461
REMARK  187  A    between atoms: _460  and  _463
REMARK  188  A    between atoms: _466  and  _468
REMARK  189  A    between atoms: _468  and  _469
REMARK  190  A    between atoms: _468  and  _471
REMARK  191  A    between atoms: _471  and  _472
REMARK  192  A    between atoms: _472  and  _473
REMARK  193  A    between atoms: _478  and  _480
REMARK  194  A    between atoms: _480  and  _481
REMARK  195  A    between atoms: _485  and  _486
REMARK  196  A    between atoms: _491  and  _493
REMARK  197  A    between atoms: _493  and  _494
REMARK  198  A    between atoms: _493  and  _496
REMARK  199  A    between atoms: _496  and  _497
REMARK  200  A    between atoms: _497  and  _498
REMARK  201  A    between atoms: _501  and  _503
REMARK  202  A    between atoms: _503  and  _504
REMARK  203  A    between atoms: _503  and  _506
REMARK  204  A    between atoms: _509  and  _511
REMARK  205  A    between atoms: _511  and  _512
REMARK  206  A    between atoms: _511  and  _514
REMARK  207  A    between atoms: _514  and  _515
REMARK  208  A    between atoms: _519  and  _520
REMARK  209  A    between atoms: _525  and  _527
REMARK  210  A    between atoms: _527  and  _528
REMARK  211  A    between atoms: _527  and  _530
REMARK  212  A    between atoms: _530  and  _531
REMARK  213  A    between atoms: _534  and  _536
REMARK  214  A    between atoms: _536  and  _537
REMARK  215  A    between atoms: _540  and  _542
REMARK  216  A    between atoms: _542  and  _543
REMARK  217  A    between atoms: _542  and  _545
REMARK  218  A    between atoms: _545  and  _546
REMARK  219  A    between atoms: _549  and  _551
REMARK  220  A    between atoms: _551  and  _552
REMARK  221  A    between atoms: _551  and  _554
REMARK  222  A    between atoms: _554  and  _555
REMARK  223  A    between atoms: _557  and  _559
REMARK  224  A    between atoms: _559  and  _560
REMARK  225  A    between atoms: _562  and  _564
REMARK  226  A    between atoms: _564  and  _565
REMARK  227  A    between atoms: _564  and  _567
REMARK  228  A    between atoms: _567  and  _568
REMARK  229  A    between atoms: _571  and  _573
REMARK  230  A    between atoms: _573  and  _574
REMARK  231  A    between atoms: _573  and  _576
REMARK                            x       y       z     vdW  Elec       q    Type
REMARK                         _______ _______ _______ _____ _____    ______ ____
ROOT
ATOM      1  O   HOH     1      -8.454   2.217   4.607  0.00  0.00    +0.000 OA
ENDROOT
TORSDOF 0
REMARK  Name = ../refined-set-2016/4xu0/4xu0_pocket.pdb
REMARK  231 active torsions:
REMARK  status: ('A' for Active; 'I' for Inactive)
REMARK    1  A    between atoms: _1  and  _3
REMARK    2  A    between atoms: _3  and  _4
REMARK    3  A    between atoms: _3  and  _6
REMARK    4  A    between atoms: _6  and  _7
REMARK    5  A    between atoms: _10  and  _12
REMARK    6  A    between atoms: _12  and  _13
REMARK    7  A    between atoms: _15  and  _17
REMARK    8  A    between atoms: _17  and  _18
REMARK    9  A    between atoms: _17  and  _20
REMARK   10  A    between atoms: _20  and  _21
REMARK   11  A    between atoms: _23  and  _25
REMARK   12  A    between atoms: _25  and  _26
REMARK   13  A    between atoms: _25  and  _28
REMARK   14  A    between atoms: _28  and  _29
REMARK   15  A    between atoms: _32  and  _34
REMARK   16  A    between atoms: _34  and  _35
REMARK   17  A    between atoms: _34  and  _37
REMARK   18  A    between atoms: _37  and  _38
REMARK   19  A    between atoms: _43  and  _45
REMARK   20  A    between atoms: _45  and  _46
REMARK   21  A    between atoms: _49  and  _51
REMARK   22  A    between atoms: _51  and  _52
REMARK   23  A    between atoms: _51  and  _54
REMARK   24  A    between atoms: _54  and  _55
REMARK   25  A    between atoms: _58  and  _60
REMARK   26  A    between atoms: _60  and  _61
REMARK   27  A    between atoms: _60  and  _63
REMARK   28  A    between atoms: _63  and  _64
REMARK   29  A    between atoms: _67  and  _69
REMARK   30  A    between atoms: _69  and  _70
REMARK   31  A    between atoms: _69  and  _72
REMARK   32  A    between atoms: _72  and  _73
REMARK   33  A    between atoms: _76  and  _78
REMARK   34  A    between atoms: _78  and  _79
REMARK   35  A    between atoms: _82  and  _84
REMARK   36  A    between atoms: _84  and  _85
REMARK   37  A    between atoms: _84  and  _87
REMARK   38  A    between atoms: _87  and  _88
REMARK   39  A    between atoms: _88  and  _89
REMARK   40  A    between atoms: _94  and  _96
REMARK   41  A    between atoms: _96  and  _97
REMARK   42  A    between atoms: _96  and  _99
REMARK   43  A    between atoms: _99  and  _100
REMARK   44  A    between atoms: _103  and  _105
REMARK   45  A    between atoms: _105  and  _106
REMARK   46  A    between atoms: _109  and  _111
REMARK   47  A    between atoms: _111  and  _112
REMARK   48  A    between atoms: _114  and  _116
REMARK   49  A    between atoms: _116  and  _117
REMARK   50  A    between atoms: _116  and  _119
REMARK   51  A    between atoms: _119  and  _120
REMARK   52  A    between atoms: _120  and  _121
REMARK   53  A    between atoms: _121  and  _122
REMARK   54  A    between atoms: _131  and  _133
REMARK   55  A    between atoms: _133  and  _134
REMARK   56  A    between atoms: _136  and  _138
REMARK   57  A    between atoms: _138  and  _139
REMARK   58  A    between atoms: _138  and  _141
REMARK   59  A    between atoms: _141  and  _142
REMARK   60  A    between atoms: _142  and  _143
REMARK   61  A    between atoms: _143  and  _144
REMARK   62  A    between atoms: _153  and  _155
REMARK   63  A    between atoms: _155  and  _156
REMARK   64  A    between atoms: _155  and  _158
REMARK   65  A    between atoms: _158  and  _159
REMARK   66  A    between atoms: _164  and  _166
REMARK   67  A    between atoms: _166  and  _167
REMARK   68  A    between atoms: _169  and  _171
REMARK   69  A    between atoms: _171  and  _172
REMARK   70  A    between atoms: _171  and  _174
REMARK   71  A    between atoms: _174  and  _175
REMARK   72  A    between atoms: _175  and  _176
REMARK   73  A    between atoms: _176  and  _177
REMARK   74  A    between atoms: _186  and  _188
REMARK   75  A    between atoms: _188  and  _189
REMARK   76  A    between atoms: _191  and  _193
REMARK   77  A    between atoms: _193  and  _194
REMARK   78  A    between atoms: _193  and  _196
REMARK   79  A    between atoms: _196  and  _197
REMARK   80  A    between atoms: _207  and  _209
REMARK   81  A    between atoms: _209  and  _210
REMARK   82  A    between atoms: _213  and  _215
REMARK   83  A    between atoms: _215  and  _216
REMARK   84  A    between atoms: _219  and  _221
REMARK   85  A    between atoms: _221  and  _222
REMARK   86  A    between atoms: _221  and  _224
REMARK   87  A    between atoms: _224  and  _225
REMARK   88  A    between atoms: _228  and  _230
REMARK   89  A    between atoms: _230  and  _231
REMARK   90  A    between atoms: _230  and  _233
REMARK   91  A    between atoms: _233  and  _234
REMARK   92  A    between atoms: _234  and  _235
REMARK   93  A    between atoms: _240  and  _242
REMARK   94  A    between atoms: _242  and  _243
REMARK   95  A    between atoms: _242  and  _245
REMARK   96  A    between atoms: _245  and  _246
REMARK   97  A    between atoms: _249  and  _251
REMARK   98  A    between atoms: _251  and  _252
REMARK   99  A    between atoms: _251  and  _254
REMARK  100  A    between atoms: _254  and  _255
REMARK  101  A    between atoms: _258  and  _260
REMARK  102  A    between atoms: _260  and  _261
REMARK  103  A    between atoms: _260  and  _263
REMARK  104  A    between atoms: _263  and  _264
REMARK  105  A    between atoms: _267  and  _269
REMARK  106  A    between atoms: _269  and  _270
REMARK  107  A    between atoms: _269  and  _272
REMARK  108  A    between atoms: _272  and  _273
REMARK  109  A    between atoms: _275  and  _277
REMARK  110  A    between atoms: _277  and  _278
REMARK  111  A    between atoms: _277  and  _280
REMARK  112  A    between atoms: _283  and  _285
REMARK  113  A    between atoms: _285  and  _286
REMARK  114  A    between atoms: _285  and  _288
REMARK  115  A    between atoms: _288  and  _289
REMARK  116  A    between atoms: _289  and  _290
REMARK  117  A    between atoms: _290  and  _291
REMARK  118  A    between atoms: _291  and  _292
REMARK  119  A    between atoms: _297  and  _298
REMARK  120  A    between atoms: _303  and  _305
REMARK  121  A    between atoms: _305  and  _306
REMARK  122  A    between atoms: _305  and  _308
REMARK  123  A    between atoms: _308  and  _309
REMARK  124  A    between atoms: _314  and  _316
REMARK  125  A    between atoms: _316  and  _317
REMARK  126  A    between atoms: _316  and  _319
REMARK  127  A    between atoms: _319  and  _320
REMARK  128  A    between atoms: _323  and  _325
REMARK  129  A    between atoms: _325  and  _326
REMARK  130  A    between atoms: _325  and  _328
REMARK  131  A    between atoms: _331  and  _333
REMARK  132  A    between atoms: _333  and  _334
REMARK  133  A    between atoms: _336  and  _338
REMARK  134  A    between atoms: _338  and  _339
REMARK  135  A    between atoms: _338  and  _341
REMARK  136  A    between atoms: _341  and  _342
REMARK  137  A    between atoms: _342  and  _343
REMARK  138  A    between atoms: _343  and  _344
REMARK  139  A    between atoms: _344  and  _345
REMARK  140  A    between atoms: _349  and  _351
REMARK  141  A    between atoms: _351  and  _352
REMARK  142  A    between atoms: _351  and  _354
REMARK  143  A    between atoms: _354  and  _355
REMARK  144  A    between atoms: _358  and  _360
REMARK  145  A    between atoms: _360  and  _361
REMARK  146  A    between atoms: _364  and  _366
REMARK  147  A    between atoms: _366  and  _367
REMARK  148  A    between atoms: _369  and  _371
REMARK  149  A    between atoms: _371  and  _372
REMARK  150  A    between atoms: _371  and  _374
REMARK  151  A    between atoms: _374  and  _375
REMARK  152  A    between atoms: _378  and  _380
REMARK  153  A    between atoms: _380  and  _381
REMARK  154  A    between atoms: _380  and  _383
REMARK  155  A    between atoms: _383  and  _384
REMARK  156  A    between atoms: _387  and  _389
REMARK  157  A    between atoms: _389  and  _390
REMARK  158  A    between atoms: _393  and  _395
REMARK  159  A    between atoms: _395  and  _396
REMARK  160  A    between atoms: _395  and  _398
REMARK  161  A    between atoms: _398  and  _399
REMARK  162  A    between atoms: _399  and  _400
REMARK  163  A    between atoms: _403  and  _405
REMARK  164  A    between atoms: _405  and  _406
REMARK  165  A    between atoms: _405  and  _408
REMARK  166  A    between atoms: _411  and  _413
REMARK  167  A    between atoms: _413  and  _414
REMARK  168  A    between atoms: _413  and  _416
REMARK  169  A    between atoms: _416  and  _417
REMARK  170  A    between atoms: _420  and  _422
REMARK  171  A    between atoms: _422  and  _423
REMARK  172  A    between atoms: _425  and  _427
REMARK  173  A    between atoms: _427  and  _428
REMARK  174  A    between atoms: _427  and  _430
REMARK  175  A    between atoms: _433  and  _435
REMARK  176  A    between atoms: _435  and  _436
REMARK  177  A    between atoms: _438  and  _440
REMARK  178  A    between atoms: _440  and  _441
REMARK  179  A    between atoms: _440  and  _443
REMARK  180  A    between atoms: _443  and  _444
REMARK  181  A    between atoms: _447  and  _449
REMARK  182  A    between atoms: _449  and  _450
REMARK  183  A    between atoms: _449  and  _452
REMARK  184  A    between atoms: _452  and  _453
REMARK  185  A    between atoms: _458  and  _460
REMARK  186  A    between atoms: _460  and  _461
REMARK  187  A    between atoms: _460  and  _463
REMARK  188  A    between atoms: _466  and  _468
REMARK  189  A    between atoms: _468  and  _469
REMARK  190  A    between atoms: _468  and  _471
REMARK  191  A    between atoms: _471  and  _472
REMARK  192  A    between atoms: _472  and  _473
REMARK  193  A    between atoms: _478  and  _480
REMARK  194  A    between atoms: _480  and  _481
REMARK  195  A    between atoms: _485  and  _486
REMARK  196  A    between atoms: _491  and  _493
REMARK  197  A    between atoms: _493  and  _494
REMARK  198  A    between atoms: _493  and  _496
REMARK  199  A    between atoms: _496  and  _497
REMARK  200  A    between atoms: _497  and  _498
REMARK  201  A    between atoms: _501  and  _503
REMARK  202  A    between atoms: _503  and  _504
REMARK  203  A    between atoms: _503  and  _506
REMARK  204  A    between atoms: _509  and  _511
REMARK  205  A    between atoms: _511  and  _512
REMARK  206  A    between atoms: _511  and  _514
REMARK  207  A    between atoms: _514  and  _515
REMARK  208  A    between atoms: _519  and  _520
REMARK  209  A    between atoms: _525  and  _527
REMARK  210  A    between atoms: _527  and  _528
REMARK  211  A    between atoms: _527  and  _530
REMARK  212  A    between atoms: _530  and  _531
REMARK  213  A    between atoms: _534  and  _536
REMARK  214  A    between atoms: _536  and  _537
REMARK  215  A    between atoms: _540  and  _542
REMARK  216  A    between atoms: _542  and  _543
REMARK  217  A    between atoms: _542  and  _545
REMARK  218  A    between atoms: _545  and  _546
REMARK  219  A    between atoms: _549  and  _551
REMARK  220  A    between atoms: _551  and  _552
REMARK  221  A    between atoms: _551  and  _554
REMARK  222  A    between atoms: _554  and  _555
REMARK  223  A    between atoms: _557  and  _559
REMARK  224  A    between atoms: _559  and  _560
REMARK  225  A    between atoms: _562  and  _564
REMARK  226  A    between atoms: _564  and  _565
REMARK  227  A    between atoms: _564  and  _567
REMARK  228  A    between atoms: _567  and  _568
REMARK  229  A    between atoms: _571  and  _573
REMARK  230  A    between atoms: _573  and  _574
REMARK  231  A    between atoms: _573  and  _576
REMARK                            x       y       z     vdW  Elec       q    Type
REMARK                         _______ _______ _______ _____ _____    ______ ____
ROOT
ATOM      1  O   HOH     1      -1.815 -11.772   3.330  0.00  0.00    +0.000 OA
ENDROOT
TORSDOF 0
REMARK  Name = ../refined-set-2016/4xu0/4xu0_pocket.pdb
REMARK  231 active torsions:
REMARK  status: ('A' for Active; 'I' for Inactive)
REMARK    1  A    between atoms: _1  and  _3
REMARK    2  A    between atoms: _3  and  _4
REMARK    3  A    between atoms: _3  and  _6
REMARK    4  A    between atoms: _6  and  _7
REMARK    5  A    between atoms: _10  and  _12
REMARK    6  A    between atoms: _12  and  _13
REMARK    7  A    between atoms: _15  and  _17
REMARK    8  A    between atoms: _17  and  _18
REMARK    9  A    between atoms: _17  and  _20
REMARK   10  A    between atoms: _20  and  _21
REMARK   11  A    between atoms: _23  and  _25
REMARK   12  A    between atoms: _25  and  _26
REMARK   13  A    between atoms: _25  and  _28
REMARK   14  A    between atoms: _28  and  _29
REMARK   15  A    between atoms: _32  and  _34
REMARK   16  A    between atoms: _34  and  _35
REMARK   17  A    between atoms: _34  and  _37
REMARK   18  A    between atoms: _37  and  _38
REMARK   19  A    between atoms: _43  and  _45
REMARK   20  A    between atoms: _45  and  _46
REMARK   21  A    between atoms: _49  and  _51
REMARK   22  A    between atoms: _51  and  _52
REMARK   23  A    between atoms: _51  and  _54
REMARK   24  A    between atoms: _54  and  _55
REMARK   25  A    between atoms: _58  and  _60
REMARK   26  A    between atoms: _60  and  _61
REMARK   27  A    between atoms: _60  and  _63
REMARK   28  A    between atoms: _63  and  _64
REMARK   29  A    between atoms: _67  and  _69
REMARK   30  A    between atoms: _69  and  _70
REMARK   31  A    between atoms: _69  and  _72
REMARK   32  A    between atoms: _72  and  _73
REMARK   33  A    between atoms: _76  and  _78
REMARK   34  A    between atoms: _78  and  _79
REMARK   35  A    between atoms: _82  and  _84
REMARK   36  A    between atoms: _84  and  _85
REMARK   37  A    between atoms: _84  and  _87
REMARK   38  A    between atoms: _87  and  _88
REMARK   39  A    between atoms: _88  and  _89
REMARK   40  A    between atoms: _94  and  _96
REMARK   41  A    between atoms: _96  and  _97
REMARK   42  A    between atoms: _96  and  _99
REMARK   43  A    between atoms: _99  and  _100
REMARK   44  A    between atoms: _103  and  _105
REMARK   45  A    between atoms: _105  and  _106
REMARK   46  A    between atoms: _109  and  _111
REMARK   47  A    between atoms: _111  and  _112
REMARK   48  A    between atoms: _114  and  _116
REMARK   49  A    between atoms: _116  and  _117
REMARK   50  A    between atoms: _116  and  _119
REMARK   51  A    between atoms: _119  and  _120
REMARK   52  A    between atoms: _120  and  _121
REMARK   53  A    between atoms: _121  and  _122
REMARK   54  A    between atoms: _131  and  _133
REMARK   55  A    between atoms: _133  and  _134
REMARK   56  A    between atoms: _136  and  _138
REMARK   57  A    between atoms: _138  and  _139
REMARK   58  A    between atoms: _138  and  _141
REMARK   59  A    between atoms: _141  and  _142
REMARK   60  A    between atoms: _142  and  _143
REMARK   61  A    between atoms: _143  and  _144
REMARK   62  A    between atoms: _153  and  _155
REMARK   63  A    between atoms: _155  and  _156
REMARK   64  A    between atoms: _155  and  _158
REMARK   65  A    between atoms: _158  and  _159
REMARK   66  A    between atoms: _164  and  _166
REMARK   67  A    between atoms: _166  and  _167
REMARK   68  A    between atoms: _169  and  _171
REMARK   69  A    between atoms: _171  and  _172
REMARK   70  A    between atoms: _171  and  _174
REMARK   71  A    between atoms: _174  and  _175
REMARK   72  A    between atoms: _175  and  _176
REMARK   73  A    between atoms: _176  and  _177
REMARK   74  A    between atoms: _186  and  _188
REMARK   75  A    between atoms: _188  and  _189
REMARK   76  A    between atoms: _191  and  _193
REMARK   77  A    between atoms: _193  and  _194
REMARK   78  A    between atoms: _193  and  _196
REMARK   79  A    between atoms: _196  and  _197
REMARK   80  A    between atoms: _207  and  _209
REMARK   81  A    between atoms: _209  and  _210
REMARK   82  A    between atoms: _213  and  _215
REMARK   83  A    between atoms: _215  and  _216
REMARK   84  A    between atoms: _219  and  _221
REMARK   85  A    between atoms: _221  and  _222
REMARK   86  A    between atoms: _221  and  _224
REMARK   87  A    between atoms: _224  and  _225
REMARK   88  A    between atoms: _228  and  _230
REMARK   89  A    between atoms: _230  and  _231
REMARK   90  A    between atoms: _230  and  _233
REMARK   91  A    between atoms: _233  and  _234
REMARK   92  A    between atoms: _234  and  _235
REMARK   93  A    between atoms: _240  and  _242
REMARK   94  A    between atoms: _242  and  _243
REMARK   95  A    between atoms: _242  and  _245
REMARK   96  A    between atoms: _245  and  _246
REMARK   97  A    between atoms: _249  and  _251
REMARK   98  A    between atoms: _251  and  _252
REMARK   99  A    between atoms: _251  and  _254
REMARK  100  A    between atoms: _254  and  _255
REMARK  101  A    between atoms: _258  and  _260
REMARK  102  A    between atoms: _260  and  _261
REMARK  103  A    between atoms: _260  and  _263
REMARK  104  A    between atoms: _263  and  _264
REMARK  105  A    between atoms: _267  and  _269
REMARK  106  A    between atoms: _269  and  _270
REMARK  107  A    between atoms: _269  and  _272
REMARK  108  A    between atoms: _272  and  _273
REMARK  109  A    between atoms: _275  and  _277
REMARK  110  A    between atoms: _277  and  _278
REMARK  111  A    between atoms: _277  and  _280
REMARK  112  A    between atoms: _283  and  _285
REMARK  113  A    between atoms: _285  and  _286
REMARK  114  A    between atoms: _285  and  _288
REMARK  115  A    between atoms: _288  and  _289
REMARK  116  A    between atoms: _289  and  _290
REMARK  117  A    between atoms: _290  and  _291
REMARK  118  A    between atoms: _291  and  _292
REMARK  119  A    between atoms: _297  and  _298
REMARK  120  A    between atoms: _303  and  _305
REMARK  121  A    between atoms: _305  and  _306
REMARK  122  A    between atoms: _305  and  _308
REMARK  123  A    between atoms: _308  and  _309
REMARK  124  A    between atoms: _314  and  _316
REMARK  125  A    between atoms: _316  and  _317
REMARK  126  A    between atoms: _316  and  _319
REMARK  127  A    between atoms: _319  and  _320
REMARK  128  A    between atoms: _323  and  _325
REMARK  129  A    between atoms: _325  and  _326
REMARK  130  A    between atoms: _325  and  _328
REMARK  131  A    between atoms: _331  and  _333
REMARK  132  A    between atoms: _333  and  _334
REMARK  133  A    between atoms: _336  and  _338
REMARK  134  A    between atoms: _338  and  _339
REMARK  135  A    between atoms: _338  and  _341
REMARK  136  A    between atoms: _341  and  _342
REMARK  137  A    between atoms: _342  and  _343
REMARK  138  A    between atoms: _343  and  _344
REMARK  139  A    between atoms: _344  and  _345
REMARK  140  A    between atoms: _349  and  _351
REMARK  141  A    between atoms: _351  and  _352
REMARK  142  A    between atoms: _351  and  _354
REMARK  143  A    between atoms: _354  and  _355
REMARK  144  A    between atoms: _358  and  _360
REMARK  145  A    between atoms: _360  and  _361
REMARK  146  A    between atoms: _364  and  _366
REMARK  147  A    between atoms: _366  and  _367
REMARK  148  A    between atoms: _369  and  _371
REMARK  149  A    between atoms: _371  and  _372
REMARK  150  A    between atoms: _371  and  _374
REMARK  151  A    between atoms: _374  and  _375
REMARK  152  A    between atoms: _378  and  _380
REMARK  153  A    between atoms: _380  and  _381
REMARK  154  A    between atoms: _380  and  _383
REMARK  155  A    between atoms: _383  and  _384
REMARK  156  A    between atoms: _387  and  _389
REMARK  157  A    between atoms: _389  and  _390
REMARK  158  A    between atoms: _393  and  _395
REMARK  159  A    between atoms: _395  and  _396
REMARK  160  A    between atoms: _395  and  _398
REMARK  161  A    between atoms: _398  and  _399
REMARK  162  A    between atoms: _399  and  _400
REMARK  163  A    between atoms: _403  and  _405
REMARK  164  A    between atoms: _405  and  _406
REMARK  165  A    between atoms: _405  and  _408
REMARK  166  A    between atoms: _411  and  _413
REMARK  167  A    between atoms: _413  and  _414
REMARK  168  A    between atoms: _413  and  _416
REMARK  169  A    between atoms: _416  and  _417
REMARK  170  A    between atoms: _420  and  _422
REMARK  171  A    between atoms: _422  and  _423
REMARK  172  A    between atoms: _425  and  _427
REMARK  173  A    between atoms: _427  and  _428
REMARK  174  A    between atoms: _427  and  _430
REMARK  175  A    between atoms: _433  and  _435
REMARK  176  A    between atoms: _435  and  _436
REMARK  177  A    between atoms: _438  and  _440
REMARK  178  A    between atoms: _440  and  _441
REMARK  179  A    between atoms: _440  and  _443
REMARK  180  A    between atoms: _443  and  _444
REMARK  181  A    between atoms: _447  and  _449
REMARK  182  A    between atoms: _449  and  _450
REMARK  183  A    between atoms: _449  and  _452
REMARK  184  A    between atoms: _452  and  _453
REMARK  185  A    between atoms: _458  and  _460
REMARK  186  A    between atoms: _460  and  _461
REMARK  187  A    between atoms: _460  and  _463
REMARK  188  A    between atoms: _466  and  _468
REMARK  189  A    between atoms: _468  and  _469
REMARK  190  A    between atoms: _468  and  _471
REMARK  191  A    between atoms: _471  and  _472
REMARK  192  A    between atoms: _472  and  _473
REMARK  193  A    between atoms: _478  and  _480
REMARK  194  A    between atoms: _480  and  _481
REMARK  195  A    between atoms: _485  and  _486
REMARK  196  A    between atoms: _491  and  _493
REMARK  197  A    between atoms: _493  and  _494
REMARK  198  A    between atoms: _493  and  _496
REMARK  199  A    between atoms: _496  and  _497
REMARK  200  A    between atoms: _497  and  _498
REMARK  201  A    between atoms: _501  and  _503
REMARK  202  A    between atoms: _503  and  _504
REMARK  203  A    between atoms: _503  and  _506
REMARK  204  A    between atoms: _509  and  _511
REMARK  205  A    between atoms: _511  and  _512
REMARK  206  A    between atoms: _511  and  _514
REMARK  207  A    between atoms: _514  and  _515
REMARK  208  A    between atoms: _519  and  _520
REMARK  209  A    between atoms: _525  and  _527
REMARK  210  A    between atoms: _527  and  _528
REMARK  211  A    between atoms: _527  and  _530
REMARK  212  A    between atoms: _530  and  _531
REMARK  213  A    between atoms: _534  and  _536
REMARK  214  A    between atoms: _536  and  _537
REMARK  215  A    between atoms: _540  and  _542
REMARK  216  A    between atoms: _542  and  _543
REMARK  217  A    between atoms: _542  and  _545
REMARK  218  A    between atoms: _545  and  _546
REMARK  219  A    between atoms: _549  and  _551
REMARK  220  A    between atoms: _551  and  _552
REMARK  221  A    between atoms: _551  and  _554
REMARK  222  A    between atoms: _554  and  _555
REMARK  223  A    between atoms: _557  and  _559
REMARK  224  A    between atoms: _559  and  _560
REMARK  225  A    between atoms: _562  and  _564
REMARK  226  A    between atoms: _564  and  _565
REMARK  227  A    between atoms: _564  and  _567
REMARK  228  A    between atoms: _567  and  _568
REMARK  229  A    between atoms: _571  and  _573
REMARK  230  A    between atoms: _573  and  _574
REMARK  231  A    between atoms: _573  and  _576
REMARK                            x       y       z     vdW  Elec       q    Type
REMARK                         _______ _______ _______ _____ _____    ______ ____
ROOT
ATOM      1  O   HOH     1     -12.930   0.860   5.846  0.00  0.00    +0.000 OA
ENDROOT
TORSDOF 0
REMARK  Name = ../refined-set-2016/4xu0/4xu0_pocket.pdb
REMARK  231 active torsions:
REMARK  status: ('A' for Active; 'I' for Inactive)
REMARK    1  A    between atoms: _1  and  _3
REMARK    2  A    between atoms: _3  and  _4
REMARK    3  A    between atoms: _3  and  _6
REMARK    4  A    between atoms: _6  and  _7
REMARK    5  A    between atoms: _10  and  _12
REMARK    6  A    between atoms: _12  and  _13
REMARK    7  A    between atoms: _15  and  _17
REMARK    8  A    between atoms: _17  and  _18
REMARK    9  A    between atoms: _17  and  _20
REMARK   10  A    between atoms: _20  and  _21
REMARK   11  A    between atoms: _23  and  _25
REMARK   12  A    between atoms: _25  and  _26
REMARK   13  A    between atoms: _25  and  _28
REMARK   14  A    between atoms: _28  and  _29
REMARK   15  A    between atoms: _32  and  _34
REMARK   16  A    between atoms: _34  and  _35
REMARK   17  A    between atoms: _34  and  _37
REMARK   18  A    between atoms: _37  and  _38
REMARK   19  A    between atoms: _43  and  _45
REMARK   20  A    between atoms: _45  and  _46
REMARK   21  A    between atoms: _49  and  _51
REMARK   22  A    between atoms: _51  and  _52
REMARK   23  A    between atoms: _51  and  _54
REMARK   24  A    between atoms: _54  and  _55
REMARK   25  A    between atoms: _58  and  _60
REMARK   26  A    between atoms: _60  and  _61
REMARK   27  A    between atoms: _60  and  _63
REMARK   28  A    between atoms: _63  and  _64
REMARK   29  A    between atoms: _67  and  _69
REMARK   30  A    between atoms: _69  and  _70
REMARK   31  A    between atoms: _69  and  _72
REMARK   32  A    between atoms: _72  and  _73
REMARK   33  A    between atoms: _76  and  _78
REMARK   34  A    between atoms: _78  and  _79
REMARK   35  A    between atoms: _82  and  _84
REMARK   36  A    between atoms: _84  and  _85
REMARK   37  A    between atoms: _84  and  _87
REMARK   38  A    between atoms: _87  and  _88
REMARK   39  A    between atoms: _88  and  _89
REMARK   40  A    between atoms: _94  and  _96
REMARK   41  A    between atoms: _96  and  _97
REMARK   42  A    between atoms: _96  and  _99
REMARK   43  A    between atoms: _99  and  _100
REMARK   44  A    between atoms: _103  and  _105
REMARK   45  A    between atoms: _105  and  _106
REMARK   46  A    between atoms: _109  and  _111
REMARK   47  A    between atoms: _111  and  _112
REMARK   48  A    between atoms: _114  and  _116
REMARK   49  A    between atoms: _116  and  _117
REMARK   50  A    between atoms: _116  and  _119
REMARK   51  A    between atoms: _119  and  _120
REMARK   52  A    between atoms: _120  and  _121
REMARK   53  A    between atoms: _121  and  _122
REMARK   54  A    between atoms: _131  and  _133
REMARK   55  A    between atoms: _133  and  _134
REMARK   56  A    between atoms: _136  and  _138
REMARK   57  A    between atoms: _138  and  _139
REMARK   58  A    between atoms: _138  and  _141
REMARK   59  A    between atoms: _141  and  _142
REMARK   60  A    between atoms: _142  and  _143
REMARK   61  A    between atoms: _143  and  _144
REMARK   62  A    between atoms: _153  and  _155
REMARK   63  A    between atoms: _155  and  _156
REMARK   64  A    between atoms: _155  and  _158
REMARK   65  A    between atoms: _158  and  _159
REMARK   66  A    between atoms: _164  and  _166
REMARK   67  A    between atoms: _166  and  _167
REMARK   68  A    between atoms: _169  and  _171
REMARK   69  A    between atoms: _171  and  _172
REMARK   70  A    between atoms: _171  and  _174
REMARK   71  A    between atoms: _174  and  _175
REMARK   72  A    between atoms: _175  and  _176
REMARK   73  A    between atoms: _176  and  _177
REMARK   74  A    between atoms: _186  and  _188
REMARK   75  A    between atoms: _188  and  _189
REMARK   76  A    between atoms: _191  and  _193
REMARK   77  A    between atoms: _193  and  _194
REMARK   78  A    between atoms: _193  and  _196
REMARK   79  A    between atoms: _196  and  _197
REMARK   80  A    between atoms: _207  and  _209
REMARK   81  A    between atoms: _209  and  _210
REMARK   82  A    between atoms: _213  and  _215
REMARK   83  A    between atoms: _215  and  _216
REMARK   84  A    between atoms: _219  and  _221
REMARK   85  A    between atoms: _221  and  _222
REMARK   86  A    between atoms: _221  and  _224
REMARK   87  A    between atoms: _224  and  _225
REMARK   88  A    between atoms: _228  and  _230
REMARK   89  A    between atoms: _230  and  _231
REMARK   90  A    between atoms: _230  and  _233
REMARK   91  A    between atoms: _233  and  _234
REMARK   92  A    between atoms: _234  and  _235
REMARK   93  A    between atoms: _240  and  _242
REMARK   94  A    between atoms: _242  and  _243
REMARK   95  A    between atoms: _242  and  _245
REMARK   96  A    between atoms: _245  and  _246
REMARK   97  A    between atoms: _249  and  _251
REMARK   98  A    between atoms: _251  and  _252
REMARK   99  A    between atoms: _251  and  _254
REMARK  100  A    between atoms: _254  and  _255
REMARK  101  A    between atoms: _258  and  _260
REMARK  102  A    between atoms: _260  and  _261
REMARK  103  A    between atoms: _260  and  _263
REMARK  104  A    between atoms: _263  and  _264
REMARK  105  A    between atoms: _267  and  _269
REMARK  106  A    between atoms: _269  and  _270
REMARK  107  A    between atoms: _269  and  _272
REMARK  108  A    between atoms: _272  and  _273
REMARK  109  A    between atoms: _275  and  _277
REMARK  110  A    between atoms: _277  and  _278
REMARK  111  A    between atoms: _277  and  _280
REMARK  112  A    between atoms: _283  and  _285
REMARK  113  A    between atoms: _285  and  _286
REMARK  114  A    between atoms: _285  and  _288
REMARK  115  A    between atoms: _288  and  _289
REMARK  116  A    between atoms: _289  and  _290
REMARK  117  A    between atoms: _290  and  _291
REMARK  118  A    between atoms: _291  and  _292
REMARK  119  A    between atoms: _297  and  _298
REMARK  120  A    between atoms: _303  and  _305
REMARK  121  A    between atoms: _305  and  _306
REMARK  122  A    between atoms: _305  and  _308
REMARK  123  A    between atoms: _308  and  _309
REMARK  124  A    between atoms: _314  and  _316
REMARK  125  A    between atoms: _316  and  _317
REMARK  126  A    between atoms: _316  and  _319
REMARK  127  A    between atoms: _319  and  _320
REMARK  128  A    between atoms: _323  and  _325
REMARK  129  A    between atoms: _325  and  _326
REMARK  130  A    between atoms: _325  and  _328
REMARK  131  A    between atoms: _331  and  _333
REMARK  132  A    between atoms: _333  and  _334
REMARK  133  A    between atoms: _336  and  _338
REMARK  134  A    between atoms: _338  and  _339
REMARK  135  A    between atoms: _338  and  _341
REMARK  136  A    between atoms: _341  and  _342
REMARK  137  A    between atoms: _342  and  _343
REMARK  138  A    between atoms: _343  and  _344
REMARK  139  A    between atoms: _344  and  _345
REMARK  140  A    between atoms: _349  and  _351
REMARK  141  A    between atoms: _351  and  _352
REMARK  142  A    between atoms: _351  and  _354
REMARK  143  A    between atoms: _354  and  _355
REMARK  144  A    between atoms: _358  and  _360
REMARK  145  A    between atoms: _360  and  _361
REMARK  146  A    between atoms: _364  and  _366
REMARK  147  A    between atoms: _366  and  _367
REMARK  148  A    between atoms: _369  and  _371
REMARK  149  A    between atoms: _371  and  _372
REMARK  150  A    between atoms: _371  and  _374
REMARK  151  A    between atoms: _374  and  _375
REMARK  152  A    between atoms: _378  and  _380
REMARK  153  A    between atoms: _380  and  _381
REMARK  154  A    between atoms: _380  and  _383
REMARK  155  A    between atoms: _383  and  _384
REMARK  156  A    between atoms: _387  and  _389
REMARK  157  A    between atoms: _389  and  _390
REMARK  158  A    between atoms: _393  and  _395
REMARK  159  A    between atoms: _395  and  _396
REMARK  160  A    between atoms: _395  and  _398
REMARK  161  A    between atoms: _398  and  _399
REMARK  162  A    between atoms: _399  and  _400
REMARK  163  A    between atoms: _403  and  _405
REMARK  164  A    between atoms: _405  and  _406
REMARK  165  A    between atoms: _405  and  _408
REMARK  166  A    between atoms: _411  and  _413
REMARK  167  A    between atoms: _413  and  _414
REMARK  168  A    between atoms: _413  and  _416
REMARK  169  A    between atoms: _416  and  _417
REMARK  170  A    between atoms: _420  and  _422
REMARK  171  A    between atoms: _422  and  _423
REMARK  172  A    between atoms: _425  and  _427
REMARK  173  A    between atoms: _427  and  _428
REMARK  174  A    between atoms: _427  and  _430
REMARK  175  A    between atoms: _433  and  _435
REMARK  176  A    between atoms: _435  and  _436
REMARK  177  A    between atoms: _438  and  _440
REMARK  178  A    between atoms: _440  and  _441
REMARK  179  A    between atoms: _440  and  _443
REMARK  180  A    between atoms: _443  and  _444
REMARK  181  A    between atoms: _447  and  _449
REMARK  182  A    between atoms: _449  and  _450
REMARK  183  A    between atoms: _449  and  _452
REMARK  184  A    between atoms: _452  and  _453
REMARK  185  A    between atoms: _458  and  _460
REMARK  186  A    between atoms: _460  and  _461
REMARK  187  A    between atoms: _460  and  _463
REMARK  188  A    between atoms: _466  and  _468
REMARK  189  A    between atoms: _468  and  _469
REMARK  190  A    between atoms: _468  and  _471
REMARK  191  A    between atoms: _471  and  _472
REMARK  192  A    between atoms: _472  and  _473
REMARK  193  A    between atoms: _478  and  _480
REMARK  194  A    between atoms: _480  and  _481
REMARK  195  A    between atoms: _485  and  _486
REMARK  196  A    between atoms: _491  and  _493
REMARK  197  A    between atoms: _493  and  _494
REMARK  198  A    between atoms: _493  and  _496
REMARK  199  A    between atoms: _496  and  _497
REMARK  200  A    between atoms: _497  and  _498
REMARK  201  A    between atoms: _501  and  _503
REMARK  202  A    between atoms: _503  and  _504
REMARK  203  A    between atoms: _503  and  _506
REMARK  204  A    between atoms: _509  and  _511
REMARK  205  A    between atoms: _511  and  _512
REMARK  206  A    between atoms: _511  and  _514
REMARK  207  A    between atoms: _514  and  _515
REMARK  208  A    between atoms: _519  and  _520
REMARK  209  A    between atoms: _525  and  _527
REMARK  210  A    between atoms: _527  and  _528
REMARK  211  A    between atoms: _527  and  _530
REMARK  212  A    between atoms: _530  and  _531
REMARK  213  A    between atoms: _534  and  _536
REMARK  214  A    between atoms: _536  and  _537
REMARK  215  A    between atoms: _540  and  _542
REMARK  216  A    between atoms: _542  and  _543
REMARK  217  A    between atoms: _542  and  _545
REMARK  218  A    between atoms: _545  and  _546
REMARK  219  A    between atoms: _549  and  _551
REMARK  220  A    between atoms: _551  and  _552
REMARK  221  A    between atoms: _551  and  _554
REMARK  222  A    between atoms: _554  and  _555
REMARK  223  A    between atoms: _557  and  _559
REMARK  224  A    between atoms: _559  and  _560
REMARK  225  A    between atoms: _562  and  _564
REMARK  226  A    between atoms: _564  and  _565
REMARK  227  A    between atoms: _564  and  _567
REMARK  228  A    between atoms: _567  and  _568
REMARK  229  A    between atoms: _571  and  _573
REMARK  230  A    between atoms: _573  and  _574
REMARK  231  A    between atoms: _573  and  _576
REMARK                            x       y       z     vdW  Elec       q    Type
REMARK                         _______ _______ _______ _____ _____    ______ ____
ROOT
ATOM      1  O   HOH     1       3.438  -1.941  13.743  0.00  0.00    +0.000 OA
ENDROOT
TORSDOF 0
REMARK  Name = ../refined-set-2016/4xu0/4xu0_pocket.pdb
REMARK  231 active torsions:
REMARK  status: ('A' for Active; 'I' for Inactive)
REMARK    1  A    between atoms: _1  and  _3
REMARK    2  A    between atoms: _3  and  _4
REMARK    3  A    between atoms: _3  and  _6
REMARK    4  A    between atoms: _6  and  _7
REMARK    5  A    between atoms: _10  and  _12
REMARK    6  A    between atoms: _12  and  _13
REMARK    7  A    between atoms: _15  and  _17
REMARK    8  A    between atoms: _17  and  _18
REMARK    9  A    between atoms: _17  and  _20
REMARK   10  A    between atoms: _20  and  _21
REMARK   11  A    between atoms: _23  and  _25
REMARK   12  A    between atoms: _25  and  _26
REMARK   13  A    between atoms: _25  and  _28
REMARK   14  A    between atoms: _28  and  _29
REMARK   15  A    between atoms: _32  and  _34
REMARK   16  A    between atoms: _34  and  _35
REMARK   17  A    between atoms: _34  and  _37
REMARK   18  A    between atoms: _37  and  _38
REMARK   19  A    between atoms: _43  and  _45
REMARK   20  A    between atoms: _45  and  _46
REMARK   21  A    between atoms: _49  and  _51
REMARK   22  A    between atoms: _51  and  _52
REMARK   23  A    between atoms: _51  and  _54
REMARK   24  A    between atoms: _54  and  _55
REMARK   25  A    between atoms: _58  and  _60
REMARK   26  A    between atoms: _60  and  _61
REMARK   27  A    between atoms: _60  and  _63
REMARK   28  A    between atoms: _63  and  _64
REMARK   29  A    between atoms: _67  and  _69
REMARK   30  A    between atoms: _69  and  _70
REMARK   31  A    between atoms: _69  and  _72
REMARK   32  A    between atoms: _72  and  _73
REMARK   33  A    between atoms: _76  and  _78
REMARK   34  A    between atoms: _78  and  _79
REMARK   35  A    between atoms: _82  and  _84
REMARK   36  A    between atoms: _84  and  _85
REMARK   37  A    between atoms: _84  and  _87
REMARK   38  A    between atoms: _87  and  _88
REMARK   39  A    between atoms: _88  and  _89
REMARK   40  A    between atoms: _94  and  _96
REMARK   41  A    between atoms: _96  and  _97
REMARK   42  A    between atoms: _96  and  _99
REMARK   43  A    between atoms: _99  and  _100
REMARK   44  A    between atoms: _103  and  _105
REMARK   45  A    between atoms: _105  and  _106
REMARK   46  A    between atoms: _109  and  _111
REMARK   47  A    between atoms: _111  and  _112
REMARK   48  A    between atoms: _114  and  _116
REMARK   49  A    between atoms: _116  and  _117
REMARK   50  A    between atoms: _116  and  _119
REMARK   51  A    between atoms: _119  and  _120
REMARK   52  A    between atoms: _120  and  _121
REMARK   53  A    between atoms: _121  and  _122
REMARK   54  A    between atoms: _131  and  _133
REMARK   55  A    between atoms: _133  and  _134
REMARK   56  A    between atoms: _136  and  _138
REMARK   57  A    between atoms: _138  and  _139
REMARK   58  A    between atoms: _138  and  _141
REMARK   59  A    between atoms: _141  and  _142
REMARK   60  A    between atoms: _142  and  _143
REMARK   61  A    between atoms: _143  and  _144
REMARK   62  A    between atoms: _153  and  _155
REMARK   63  A    between atoms: _155  and  _156
REMARK   64  A    between atoms: _155  and  _158
REMARK   65  A    between atoms: _158  and  _159
REMARK   66  A    between atoms: _164  and  _166
REMARK   67  A    between atoms: _166  and  _167
REMARK   68  A    between atoms: _169  and  _171
REMARK   69  A    between atoms: _171  and  _172
REMARK   70  A    between atoms: _171  and  _174
REMARK   71  A    between atoms: _174  and  _175
REMARK   72  A    between atoms: _175  and  _176
REMARK   73  A    between atoms: _176  and  _177
REMARK   74  A    between atoms: _186  and  _188
REMARK   75  A    between atoms: _188  and  _189
REMARK   76  A    between atoms: _191  and  _193
REMARK   77  A    between atoms: _193  and  _194
REMARK   78  A    between atoms: _193  and  _196
REMARK   79  A    between atoms: _196  and  _197
REMARK   80  A    between atoms: _207  and  _209
REMARK   81  A    between atoms: _209  and  _210
REMARK   82  A    between atoms: _213  and  _215
REMARK   83  A    between atoms: _215  and  _216
REMARK   84  A    between atoms: _219  and  _221
REMARK   85  A    between atoms: _221  and  _222
REMARK   86  A    between atoms: _221  and  _224
REMARK   87  A    between atoms: _224  and  _225
REMARK   88  A    between atoms: _228  and  _230
REMARK   89  A    between atoms: _230  and  _231
REMARK   90  A    between atoms: _230  and  _233
REMARK   91  A    between atoms: _233  and  _234
REMARK   92  A    between atoms: _234  and  _235
REMARK   93  A    between atoms: _240  and  _242
REMARK   94  A    between atoms: _242  and  _243
REMARK   95  A    between atoms: _242  and  _245
REMARK   96  A    between atoms: _245  and  _246
REMARK   97  A    between atoms: _249  and  _251
REMARK   98  A    between atoms: _251  and  _252
REMARK   99  A    between atoms: _251  and  _254
REMARK  100  A    between atoms: _254  and  _255
REMARK  101  A    between atoms: _258  and  _260
REMARK  102  A    between atoms: _260  and  _261
REMARK  103  A    between atoms: _260  and  _263
REMARK  104  A    between atoms: _263  and  _264
REMARK  105  A    between atoms: _267  and  _269
REMARK  106  A    between atoms: _269  and  _270
REMARK  107  A    between atoms: _269  and  _272
REMARK  108  A    between atoms: _272  and  _273
REMARK  109  A    between atoms: _275  and  _277
REMARK  110  A    between atoms: _277  and  _278
REMARK  111  A    between atoms: _277  and  _280
REMARK  112  A    between atoms: _283  and  _285
REMARK  113  A    between atoms: _285  and  _286
REMARK  114  A    between atoms: _285  and  _288
REMARK  115  A    between atoms: _288  and  _289
REMARK  116  A    between atoms: _289  and  _290
REMARK  117  A    between atoms: _290  and  _291
REMARK  118  A    between atoms: _291  and  _292
REMARK  119  A    between atoms: _297  and  _298
REMARK  120  A    between atoms: _303  and  _305
REMARK  121  A    between atoms: _305  and  _306
REMARK  122  A    between atoms: _305  and  _308
REMARK  123  A    between atoms: _308  and  _309
REMARK  124  A    between atoms: _314  and  _316
REMARK  125  A    between atoms: _316  and  _317
REMARK  126  A    between atoms: _316  and  _319
REMARK  127  A    between atoms: _319  and  _320
REMARK  128  A    between atoms: _323  and  _325
REMARK  129  A    between atoms: _325  and  _326
REMARK  130  A    between atoms: _325  and  _328
REMARK  131  A    between atoms: _331  and  _333
REMARK  132  A    between atoms: _333  and  _334
REMARK  133  A    between atoms: _336  and  _338
REMARK  134  A    between atoms: _338  and  _339
REMARK  135  A    between atoms: _338  and  _341
REMARK  136  A    between atoms: _341  and  _342
REMARK  137  A    between atoms: _342  and  _343
REMARK  138  A    between atoms: _343  and  _344
REMARK  139  A    between atoms: _344  and  _345
REMARK  140  A    between atoms: _349  and  _351
REMARK  141  A    between atoms: _351  and  _352
REMARK  142  A    between atoms: _351  and  _354
REMARK  143  A    between atoms: _354  and  _355
REMARK  144  A    between atoms: _358  and  _360
REMARK  145  A    between atoms: _360  and  _361
REMARK  146  A    between atoms: _364  and  _366
REMARK  147  A    between atoms: _366  and  _367
REMARK  148  A    between atoms: _369  and  _371
REMARK  149  A    between atoms: _371  and  _372
REMARK  150  A    between atoms: _371  and  _374
REMARK  151  A    between atoms: _374  and  _375
REMARK  152  A    between atoms: _378  and  _380
REMARK  153  A    between atoms: _380  and  _381
REMARK  154  A    between atoms: _380  and  _383
REMARK  155  A    between atoms: _383  and  _384
REMARK  156  A    between atoms: _387  and  _389
REMARK  157  A    between atoms: _389  and  _390
REMARK  158  A    between atoms: _393  and  _395
REMARK  159  A    between atoms: _395  and  _396
REMARK  160  A    between atoms: _395  and  _398
REMARK  161  A    between atoms: _398  and  _399
REMARK  162  A    between atoms: _399  and  _400
REMARK  163  A    between atoms: _403  and  _405
REMARK  164  A    between atoms: _405  and  _406
REMARK  165  A    between atoms: _405  and  _408
REMARK  166  A    between atoms: _411  and  _413
REMARK  167  A    between atoms: _413  and  _414
REMARK  168  A    between atoms: _413  and  _416
REMARK  169  A    between atoms: _416  and  _417
REMARK  170  A    between atoms: _420  and  _422
REMARK  171  A    between atoms: _422  and  _423
REMARK  172  A    between atoms: _425  and  _427
REMARK  173  A    between atoms: _427  and  _428
REMARK  174  A    between atoms: _427  and  _430
REMARK  175  A    between atoms: _433  and  _435
REMARK  176  A    between atoms: _435  and  _436
REMARK  177  A    between atoms: _438  and  _440
REMARK  178  A    between atoms: _440  and  _441
REMARK  179  A    between atoms: _440  and  _443
REMARK  180  A    between atoms: _443  and  _444
REMARK  181  A    between atoms: _447  and  _449
REMARK  182  A    between atoms: _449  and  _450
REMARK  183  A    between atoms: _449  and  _452
REMARK  184  A    between atoms: _452  and  _453
REMARK  185  A    between atoms: _458  and  _460
REMARK  186  A    between atoms: _460  and  _461
REMARK  187  A    between atoms: _460  and  _463
REMARK  188  A    between atoms: _466  and  _468
REMARK  189  A    between atoms: _468  and  _469
REMARK  190  A    between atoms: _468  and  _471
REMARK  191  A    between atoms: _471  and  _472
REMARK  192  A    between atoms: _472  and  _473
REMARK  193  A    between atoms: _478  and  _480
REMARK  194  A    between atoms: _480  and  _481
REMARK  195  A    between atoms: _485  and  _486
REMARK  196  A    between atoms: _491  and  _493
REMARK  197  A    between atoms: _493  and  _494
REMARK  198  A    between atoms: _493  and  _496
REMARK  199  A    between atoms: _496  and  _497
REMARK  200  A    between atoms: _497  and  _498
REMARK  201  A    between atoms: _501  and  _503
REMARK  202  A    between atoms: _503  and  _504
REMARK  203  A    between atoms: _503  and  _506
REMARK  204  A    between atoms: _509  and  _511
REMARK  205  A    between atoms: _511  and  _512
REMARK  206  A    between atoms: _511  and  _514
REMARK  207  A    between atoms: _514  and  _515
REMARK  208  A    between atoms: _519  and  _520
REMARK  209  A    between atoms: _525  and  _527
REMARK  210  A    between atoms: _527  and  _528
REMARK  211  A    between atoms: _527  and  _530
REMARK  212  A    between atoms: _530  and  _531
REMARK  213  A    between atoms: _534  and  _536
REMARK  214  A    between atoms: _536  and  _537
REMARK  215  A    between atoms: _540  and  _542
REMARK  216  A    between atoms: _542  and  _543
REMARK  217  A    between atoms: _542  and  _545
REMARK  218  A    between atoms: _545  and  _546
REMARK  219  A    between atoms: _549  and  _551
REMARK  220  A    between atoms: _551  and  _552
REMARK  221  A    between atoms: _551  and  _554
REMARK  222  A    between atoms: _554  and  _555
REMARK  223  A    between atoms: _557  and  _559
REMARK  224  A    between atoms: _559  and  _560
REMARK  225  A    between atoms: _562  and  _564
REMARK  226  A    between atoms: _564  and  _565
REMARK  227  A    between atoms: _564  and  _567
REMARK  228  A    between atoms: _567  and  _568
REMARK  229  A    between atoms: _571  and  _573
REMARK  230  A    between atoms: _573  and  _574
REMARK  231  A    between atoms: _573  and  _576
REMARK                            x       y       z     vdW  Elec       q    Type
REMARK                         _______ _______ _______ _____ _____    ______ ____
ROOT
ATOM      1  O   HOH     1      -6.905   4.309   6.195  0.00  0.00    +0.000 OA
ENDROOT
TORSDOF 0
REMARK  Name = ../refined-set-2016/4xu0/4xu0_pocket.pdb
REMARK  231 active torsions:
REMARK  status: ('A' for Active; 'I' for Inactive)
REMARK    1  A    between atoms: _1  and  _3
REMARK    2  A    between atoms: _3  and  _4
REMARK    3  A    between atoms: _3  and  _6
REMARK    4  A    between atoms: _6  and  _7
REMARK    5  A    between atoms: _10  and  _12
REMARK    6  A    between atoms: _12  and  _13
REMARK    7  A    between atoms: _15  and  _17
REMARK    8  A    between atoms: _17  and  _18
REMARK    9  A    between atoms: _17  and  _20
REMARK   10  A    between atoms: _20  and  _21
REMARK   11  A    between atoms: _23  and  _25
REMARK   12  A    between atoms: _25  and  _26
REMARK   13  A    between atoms: _25  and  _28
REMARK   14  A    between atoms: _28  and  _29
REMARK   15  A    between atoms: _32  and  _34
REMARK   16  A    between atoms: _34  and  _35
REMARK   17  A    between atoms: _34  and  _37
REMARK   18  A    between atoms: _37  and  _38
REMARK   19  A    between atoms: _43  and  _45
REMARK   20  A    between atoms: _45  and  _46
REMARK   21  A    between atoms: _49  and  _51
REMARK   22  A    between atoms: _51  and  _52
REMARK   23  A    between atoms: _51  and  _54
REMARK   24  A    between atoms: _54  and  _55
REMARK   25  A    between atoms: _58  and  _60
REMARK   26  A    between atoms: _60  and  _61
REMARK   27  A    between atoms: _60  and  _63
REMARK   28  A    between atoms: _63  and  _64
REMARK   29  A    between atoms: _67  and  _69
REMARK   30  A    between atoms: _69  and  _70
REMARK   31  A    between atoms: _69  and  _72
REMARK   32  A    between atoms: _72  and  _73
REMARK   33  A    between atoms: _76  and  _78
REMARK   34  A    between atoms: _78  and  _79
REMARK   35  A    between atoms: _82  and  _84
REMARK   36  A    between atoms: _84  and  _85
REMARK   37  A    between atoms: _84  and  _87
REMARK   38  A    between atoms: _87  and  _88
REMARK   39  A    between atoms: _88  and  _89
REMARK   40  A    between atoms: _94  and  _96
REMARK   41  A    between atoms: _96  and  _97
REMARK   42  A    between atoms: _96  and  _99
REMARK   43  A    between atoms: _99  and  _100
REMARK   44  A    between atoms: _103  and  _105
REMARK   45  A    between atoms: _105  and  _106
REMARK   46  A    between atoms: _109  and  _111
REMARK   47  A    between atoms: _111  and  _112
REMARK   48  A    between atoms: _114  and  _116
REMARK   49  A    between atoms: _116  and  _117
REMARK   50  A    between atoms: _116  and  _119
REMARK   51  A    between atoms: _119  and  _120
REMARK   52  A    between atoms: _120  and  _121
REMARK   53  A    between atoms: _121  and  _122
REMARK   54  A    between atoms: _131  and  _133
REMARK   55  A    between atoms: _133  and  _134
REMARK   56  A    between atoms: _136  and  _138
REMARK   57  A    between atoms: _138  and  _139
REMARK   58  A    between atoms: _138  and  _141
REMARK   59  A    between atoms: _141  and  _142
REMARK   60  A    between atoms: _142  and  _143
REMARK   61  A    between atoms: _143  and  _144
REMARK   62  A    between atoms: _153  and  _155
REMARK   63  A    between atoms: _155  and  _156
REMARK   64  A    between atoms: _155  and  _158
REMARK   65  A    between atoms: _158  and  _159
REMARK   66  A    between atoms: _164  and  _166
REMARK   67  A    between atoms: _166  and  _167
REMARK   68  A    between atoms: _169  and  _171
REMARK   69  A    between atoms: _171  and  _172
REMARK   70  A    between atoms: _171  and  _174
REMARK   71  A    between atoms: _174  and  _175
REMARK   72  A    between atoms: _175  and  _176
REMARK   73  A    between atoms: _176  and  _177
REMARK   74  A    between atoms: _186  and  _188
REMARK   75  A    between atoms: _188  and  _189
REMARK   76  A    between atoms: _191  and  _193
REMARK   77  A    between atoms: _193  and  _194
REMARK   78  A    between atoms: _193  and  _196
REMARK   79  A    between atoms: _196  and  _197
REMARK   80  A    between atoms: _207  and  _209
REMARK   81  A    between atoms: _209  and  _210
REMARK   82  A    between atoms: _213  and  _215
REMARK   83  A    between atoms: _215  and  _216
REMARK   84  A    between atoms: _219  and  _221
REMARK   85  A    between atoms: _221  and  _222
REMARK   86  A    between atoms: _221  and  _224
REMARK   87  A    between atoms: _224  and  _225
REMARK   88  A    between atoms: _228  and  _230
REMARK   89  A    between atoms: _230  and  _231
REMARK   90  A    between atoms: _230  and  _233
REMARK   91  A    between atoms: _233  and  _234
REMARK   92  A    between atoms: _234  and  _235
REMARK   93  A    between atoms: _240  and  _242
REMARK   94  A    between atoms: _242  and  _243
REMARK   95  A    between atoms: _242  and  _245
REMARK   96  A    between atoms: _245  and  _246
REMARK   97  A    between atoms: _249  and  _251
REMARK   98  A    between atoms: _251  and  _252
REMARK   99  A    between atoms: _251  and  _254
REMARK  100  A    between atoms: _254  and  _255
REMARK  101  A    between atoms: _258  and  _260
REMARK  102  A    between atoms: _260  and  _261
REMARK  103  A    between atoms: _260  and  _263
REMARK  104  A    between atoms: _263  and  _264
REMARK  105  A    between atoms: _267  and  _269
REMARK  106  A    between atoms: _269  and  _270
REMARK  107  A    between atoms: _269  and  _272
REMARK  108  A    between atoms: _272  and  _273
REMARK  109  A    between atoms: _275  and  _277
REMARK  110  A    between atoms: _277  and  _278
REMARK  111  A    between atoms: _277  and  _280
REMARK  112  A    between atoms: _283  and  _285
REMARK  113  A    between atoms: _285  and  _286
REMARK  114  A    between atoms: _285  and  _288
REMARK  115  A    between atoms: _288  and  _289
REMARK  116  A    between atoms: _289  and  _290
REMARK  117  A    between atoms: _290  and  _291
REMARK  118  A    between atoms: _291  and  _292
REMARK  119  A    between atoms: _297  and  _298
REMARK  120  A    between atoms: _303  and  _305
REMARK  121  A    between atoms: _305  and  _306
REMARK  122  A    between atoms: _305  and  _308
REMARK  123  A    between atoms: _308  and  _309
REMARK  124  A    between atoms: _314  and  _316
REMARK  125  A    between atoms: _316  and  _317
REMARK  126  A    between atoms: _316  and  _319
REMARK  127  A    between atoms: _319  and  _320
REMARK  128  A    between atoms: _323  and  _325
REMARK  129  A    between atoms: _325  and  _326
REMARK  130  A    between atoms: _325  and  _328
REMARK  131  A    between atoms: _331  and  _333
REMARK  132  A    between atoms: _333  and  _334
REMARK  133  A    between atoms: _336  and  _338
REMARK  134  A    between atoms: _338  and  _339
REMARK  135  A    between atoms: _338  and  _341
REMARK  136  A    between atoms: _341  and  _342
REMARK  137  A    between atoms: _342  and  _343
REMARK  138  A    between atoms: _343  and  _344
REMARK  139  A    between atoms: _344  and  _345
REMARK  140  A    between atoms: _349  and  _351
REMARK  141  A    between atoms: _351  and  _352
REMARK  142  A    between atoms: _351  and  _354
REMARK  143  A    between atoms: _354  and  _355
REMARK  144  A    between atoms: _358  and  _360
REMARK  145  A    between atoms: _360  and  _361
REMARK  146  A    between atoms: _364  and  _366
REMARK  147  A    between atoms: _366  and  _367
REMARK  148  A    between atoms: _369  and  _371
REMARK  149  A    between atoms: _371  and  _372
REMARK  150  A    between atoms: _371  and  _374
REMARK  151  A    between atoms: _374  and  _375
REMARK  152  A    between atoms: _378  and  _380
REMARK  153  A    between atoms: _380  and  _381
REMARK  154  A    between atoms: _380  and  _383
REMARK  155  A    between atoms: _383  and  _384
REMARK  156  A    between atoms: _387  and  _389
REMARK  157  A    between atoms: _389  and  _390
REMARK  158  A    between atoms: _393  and  _395
REMARK  159  A    between atoms: _395  and  _396
REMARK  160  A    between atoms: _395  and  _398
REMARK  161  A    between atoms: _398  and  _399
REMARK  162  A    between atoms: _399  and  _400
REMARK  163  A    between atoms: _403  and  _405
REMARK  164  A    between atoms: _405  and  _406
REMARK  165  A    between atoms: _405  and  _408
REMARK  166  A    between atoms: _411  and  _413
REMARK  167  A    between atoms: _413  and  _414
REMARK  168  A    between atoms: _413  and  _416
REMARK  169  A    between atoms: _416  and  _417
REMARK  170  A    between atoms: _420  and  _422
REMARK  171  A    between atoms: _422  and  _423
REMARK  172  A    between atoms: _425  and  _427
REMARK  173  A    between atoms: _427  and  _428
REMARK  174  A    between atoms: _427  and  _430
REMARK  175  A    between atoms: _433  and  _435
REMARK  176  A    between atoms: _435  and  _436
REMARK  177  A    between atoms: _438  and  _440
REMARK  178  A    between atoms: _440  and  _441
REMARK  179  A    between atoms: _440  and  _443
REMARK  180  A    between atoms: _443  and  _444
REMARK  181  A    between atoms: _447  and  _449
REMARK  182  A    between atoms: _449  and  _450
REMARK  183  A    between atoms: _449  and  _452
REMARK  184  A    between atoms: _452  and  _453
REMARK  185  A    between atoms: _458  and  _460
REMARK  186  A    between atoms: _460  and  _461
REMARK  187  A    between atoms: _460  and  _463
REMARK  188  A    between atoms: _466  and  _468
REMARK  189  A    between atoms: _468  and  _469
REMARK  190  A    between atoms: _468  and  _471
REMARK  191  A    between atoms: _471  and  _472
REMARK  192  A    between atoms: _472  and  _473
REMARK  193  A    between atoms: _478  and  _480
REMARK  194  A    between atoms: _480  and  _481
REMARK  195  A    between atoms: _485  and  _486
REMARK  196  A    between atoms: _491  and  _493
REMARK  197  A    between atoms: _493  and  _494
REMARK  198  A    between atoms: _493  and  _496
REMARK  199  A    between atoms: _496  and  _497
REMARK  200  A    between atoms: _497  and  _498
REMARK  201  A    between atoms: _501  and  _503
REMARK  202  A    between atoms: _503  and  _504
REMARK  203  A    between atoms: _503  and  _506
REMARK  204  A    between atoms: _509  and  _511
REMARK  205  A    between atoms: _511  and  _512
REMARK  206  A    between atoms: _511  and  _514
REMARK  207  A    between atoms: _514  and  _515
REMARK  208  A    between atoms: _519  and  _520
REMARK  209  A    between atoms: _525  and  _527
REMARK  210  A    between atoms: _527  and  _528
REMARK  211  A    between atoms: _527  and  _530
REMARK  212  A    between atoms: _530  and  _531
REMARK  213  A    between atoms: _534  and  _536
REMARK  214  A    between atoms: _536  and  _537
REMARK  215  A    between atoms: _540  and  _542
REMARK  216  A    between atoms: _542  and  _543
REMARK  217  A    between atoms: _542  and  _545
REMARK  218  A    between atoms: _545  and  _546
REMARK  219  A    between atoms: _549  and  _551
REMARK  220  A    between atoms: _551  and  _552
REMARK  221  A    between atoms: _551  and  _554
REMARK  222  A    between atoms: _554  and  _555
REMARK  223  A    between atoms: _557  and  _559
REMARK  224  A    between atoms: _559  and  _560
REMARK  225  A    between atoms: _562  and  _564
REMARK  226  A    between atoms: _564  and  _565
REMARK  227  A    between atoms: _564  and  _567
REMARK  228  A    between atoms: _567  and  _568
REMARK  229  A    between atoms: _571  and  _573
REMARK  230  A    between atoms: _573  and  _574
REMARK  231  A    between atoms: _573  and  _576
REMARK                            x       y       z     vdW  Elec       q    Type
REMARK                         _______ _______ _______ _____ _____    ______ ____
ROOT
ATOM      1  O   HOH     1       3.393   1.384  11.509  0.00  0.00    +0.000 OA
ENDROOT
TORSDOF 0
REMARK  Name = ../refined-set-2016/4xu0/4xu0_pocket.pdb
REMARK  231 active torsions:
REMARK  status: ('A' for Active; 'I' for Inactive)
REMARK    1  A    between atoms: _1  and  _3
REMARK    2  A    between atoms: _3  and  _4
REMARK    3  A    between atoms: _3  and  _6
REMARK    4  A    between atoms: _6  and  _7
REMARK    5  A    between atoms: _10  and  _12
REMARK    6  A    between atoms: _12  and  _13
REMARK    7  A    between atoms: _15  and  _17
REMARK    8  A    between atoms: _17  and  _18
REMARK    9  A    between atoms: _17  and  _20
REMARK   10  A    between atoms: _20  and  _21
REMARK   11  A    between atoms: _23  and  _25
REMARK   12  A    between atoms: _25  and  _26
REMARK   13  A    between atoms: _25  and  _28
REMARK   14  A    between atoms: _28  and  _29
REMARK   15  A    between atoms: _32  and  _34
REMARK   16  A    between atoms: _34  and  _35
REMARK   17  A    between atoms: _34  and  _37
REMARK   18  A    between atoms: _37  and  _38
REMARK   19  A    between atoms: _43  and  _45
REMARK   20  A    between atoms: _45  and  _46
REMARK   21  A    between atoms: _49  and  _51
REMARK   22  A    between atoms: _51  and  _52
REMARK   23  A    between atoms: _51  and  _54
REMARK   24  A    between atoms: _54  and  _55
REMARK   25  A    between atoms: _58  and  _60
REMARK   26  A    between atoms: _60  and  _61
REMARK   27  A    between atoms: _60  and  _63
REMARK   28  A    between atoms: _63  and  _64
REMARK   29  A    between atoms: _67  and  _69
REMARK   30  A    between atoms: _69  and  _70
REMARK   31  A    between atoms: _69  and  _72
REMARK   32  A    between atoms: _72  and  _73
REMARK   33  A    between atoms: _76  and  _78
REMARK   34  A    between atoms: _78  and  _79
REMARK   35  A    between atoms: _82  and  _84
REMARK   36  A    between atoms: _84  and  _85
REMARK   37  A    between atoms: _84  and  _87
REMARK   38  A    between atoms: _87  and  _88
REMARK   39  A    between atoms: _88  and  _89
REMARK   40  A    between atoms: _94  and  _96
REMARK   41  A    between atoms: _96  and  _97
REMARK   42  A    between atoms: _96  and  _99
REMARK   43  A    between atoms: _99  and  _100
REMARK   44  A    between atoms: _103  and  _105
REMARK   45  A    between atoms: _105  and  _106
REMARK   46  A    between atoms: _109  and  _111
REMARK   47  A    between atoms: _111  and  _112
REMARK   48  A    between atoms: _114  and  _116
REMARK   49  A    between atoms: _116  and  _117
REMARK   50  A    between atoms: _116  and  _119
REMARK   51  A    between atoms: _119  and  _120
REMARK   52  A    between atoms: _120  and  _121
REMARK   53  A    between atoms: _121  and  _122
REMARK   54  A    between atoms: _131  and  _133
REMARK   55  A    between atoms: _133  and  _134
REMARK   56  A    between atoms: _136  and  _138
REMARK   57  A    between atoms: _138  and  _139
REMARK   58  A    between atoms: _138  and  _141
REMARK   59  A    between atoms: _141  and  _142
REMARK   60  A    between atoms: _142  and  _143
REMARK   61  A    between atoms: _143  and  _144
REMARK   62  A    between atoms: _153  and  _155
REMARK   63  A    between atoms: _155  and  _156
REMARK   64  A    between atoms: _155  and  _158
REMARK   65  A    between atoms: _158  and  _159
REMARK   66  A    between atoms: _164  and  _166
REMARK   67  A    between atoms: _166  and  _167
REMARK   68  A    between atoms: _169  and  _171
REMARK   69  A    between atoms: _171  and  _172
REMARK   70  A    between atoms: _171  and  _174
REMARK   71  A    between atoms: _174  and  _175
REMARK   72  A    between atoms: _175  and  _176
REMARK   73  A    between atoms: _176  and  _177
REMARK   74  A    between atoms: _186  and  _188
REMARK   75  A    between atoms: _188  and  _189
REMARK   76  A    between atoms: _191  and  _193
REMARK   77  A    between atoms: _193  and  _194
REMARK   78  A    between atoms: _193  and  _196
REMARK   79  A    between atoms: _196  and  _197
REMARK   80  A    between atoms: _207  and  _209
REMARK   81  A    between atoms: _209  and  _210
REMARK   82  A    between atoms: _213  and  _215
REMARK   83  A    between atoms: _215  and  _216
REMARK   84  A    between atoms: _219  and  _221
REMARK   85  A    between atoms: _221  and  _222
REMARK   86  A    between atoms: _221  and  _224
REMARK   87  A    between atoms: _224  and  _225
REMARK   88  A    between atoms: _228  and  _230
REMARK   89  A    between atoms: _230  and  _231
REMARK   90  A    between atoms: _230  and  _233
REMARK   91  A    between atoms: _233  and  _234
REMARK   92  A    between atoms: _234  and  _235
REMARK   93  A    between atoms: _240  and  _242
REMARK   94  A    between atoms: _242  and  _243
REMARK   95  A    between atoms: _242  and  _245
REMARK   96  A    between atoms: _245  and  _246
REMARK   97  A    between atoms: _249  and  _251
REMARK   98  A    between atoms: _251  and  _252
REMARK   99  A    between atoms: _251  and  _254
REMARK  100  A    between atoms: _254  and  _255
REMARK  101  A    between atoms: _258  and  _260
REMARK  102  A    between atoms: _260  and  _261
REMARK  103  A    between atoms: _260  and  _263
REMARK  104  A    between atoms: _263  and  _264
REMARK  105  A    between atoms: _267  and  _269
REMARK  106  A    between atoms: _269  and  _270
REMARK  107  A    between atoms: _269  and  _272
REMARK  108  A    between atoms: _272  and  _273
REMARK  109  A    between atoms: _275  and  _277
REMARK  110  A    between atoms: _277  and  _278
REMARK  111  A    between atoms: _277  and  _280
REMARK  112  A    between atoms: _283  and  _285
REMARK  113  A    between atoms: _285  and  _286
REMARK  114  A    between atoms: _285  and  _288
REMARK  115  A    between atoms: _288  and  _289
REMARK  116  A    between atoms: _289  and  _290
REMARK  117  A    between atoms: _290  and  _291
REMARK  118  A    between atoms: _291  and  _292
REMARK  119  A    between atoms: _297  and  _298
REMARK  120  A    between atoms: _303  and  _305
REMARK  121  A    between atoms: _305  and  _306
REMARK  122  A    between atoms: _305  and  _308
REMARK  123  A    between atoms: _308  and  _309
REMARK  124  A    between atoms: _314  and  _316
REMARK  125  A    between atoms: _316  and  _317
REMARK  126  A    between atoms: _316  and  _319
REMARK  127  A    between atoms: _319  and  _320
REMARK  128  A    between atoms: _323  and  _325
REMARK  129  A    between atoms: _325  and  _326
REMARK  130  A    between atoms: _325  and  _328
REMARK  131  A    between atoms: _331  and  _333
REMARK  132  A    between atoms: _333  and  _334
REMARK  133  A    between atoms: _336  and  _338
REMARK  134  A    between atoms: _338  and  _339
REMARK  135  A    between atoms: _338  and  _341
REMARK  136  A    between atoms: _341  and  _342
REMARK  137  A    between atoms: _342  and  _343
REMARK  138  A    between atoms: _343  and  _344
REMARK  139  A    between atoms: _344  and  _345
REMARK  140  A    between atoms: _349  and  _351
REMARK  141  A    between atoms: _351  and  _352
REMARK  142  A    between atoms: _351  and  _354
REMARK  143  A    between atoms: _354  and  _355
REMARK  144  A    between atoms: _358  and  _360
REMARK  145  A    between atoms: _360  and  _361
REMARK  146  A    between atoms: _364  and  _366
REMARK  147  A    between atoms: _366  and  _367
REMARK  148  A    between atoms: _369  and  _371
REMARK  149  A    between atoms: _371  and  _372
REMARK  150  A    between atoms: _371  and  _374
REMARK  151  A    between atoms: _374  and  _375
REMARK  152  A    between atoms: _378  and  _380
REMARK  153  A    between atoms: _380  and  _381
REMARK  154  A    between atoms: _380  and  _383
REMARK  155  A    between atoms: _383  and  _384
REMARK  156  A    between atoms: _387  and  _389
REMARK  157  A    between atoms: _389  and  _390
REMARK  158  A    between atoms: _393  and  _395
REMARK  159  A    between atoms: _395  and  _396
REMARK  160  A    between atoms: _395  and  _398
REMARK  161  A    between atoms: _398  and  _399
REMARK  162  A    between atoms: _399  and  _400
REMARK  163  A    between atoms: _403  and  _405
REMARK  164  A    between atoms: _405  and  _406
REMARK  165  A    between atoms: _405  and  _408
REMARK  166  A    between atoms: _411  and  _413
REMARK  167  A    between atoms: _413  and  _414
REMARK  168  A    between atoms: _413  and  _416
REMARK  169  A    between atoms: _416  and  _417
REMARK  170  A    between atoms: _420  and  _422
REMARK  171  A    between atoms: _422  and  _423
REMARK  172  A    between atoms: _425  and  _427
REMARK  173  A    between atoms: _427  and  _428
REMARK  174  A    between atoms: _427  and  _430
REMARK  175  A    between atoms: _433  and  _435
REMARK  176  A    between atoms: _435  and  _436
REMARK  177  A    between atoms: _438  and  _440
REMARK  178  A    between atoms: _440  and  _441
REMARK  179  A    between atoms: _440  and  _443
REMARK  180  A    between atoms: _443  and  _444
REMARK  181  A    between atoms: _447  and  _449
REMARK  182  A    between atoms: _449  and  _450
REMARK  183  A    between atoms: _449  and  _452
REMARK  184  A    between atoms: _452  and  _453
REMARK  185  A    between atoms: _458  and  _460
REMARK  186  A    between atoms: _460  and  _461
REMARK  187  A    between atoms: _460  and  _463
REMARK  188  A    between atoms: _466  and  _468
REMARK  189  A    between atoms: _468  and  _469
REMARK  190  A    between atoms: _468  and  _471
REMARK  191  A    between atoms: _471  and  _472
REMARK  192  A    between atoms: _472  and  _473
REMARK  193  A    between atoms: _478  and  _480
REMARK  194  A    between atoms: _480  and  _481
REMARK  195  A    between atoms: _485  and  _486
REMARK  196  A    between atoms: _491  and  _493
REMARK  197  A    between atoms: _493  and  _494
REMARK  198  A    between atoms: _493  and  _496
REMARK  199  A    between atoms: _496  and  _497
REMARK  200  A    between atoms: _497  and  _498
REMARK  201  A    between atoms: _501  and  _503
REMARK  202  A    between atoms: _503  and  _504
REMARK  203  A    between atoms: _503  and  _506
REMARK  204  A    between atoms: _509  and  _511
REMARK  205  A    between atoms: _511  and  _512
REMARK  206  A    between atoms: _511  and  _514
REMARK  207  A    between atoms: _514  and  _515
REMARK  208  A    between atoms: _519  and  _520
REMARK  209  A    between atoms: _525  and  _527
REMARK  210  A    between atoms: _527  and  _528
REMARK  211  A    between atoms: _527  and  _530
REMARK  212  A    between atoms: _530  and  _531
REMARK  213  A    between atoms: _534  and  _536
REMARK  214  A    between atoms: _536  and  _537
REMARK  215  A    between atoms: _540  and  _542
REMARK  216  A    between atoms: _542  and  _543
REMARK  217  A    between atoms: _542  and  _545
REMARK  218  A    between atoms: _545  and  _546
REMARK  219  A    between atoms: _549  and  _551
REMARK  220  A    between atoms: _551  and  _552
REMARK  221  A    between atoms: _551  and  _554
REMARK  222  A    between atoms: _554  and  _555
REMARK  223  A    between atoms: _557  and  _559
REMARK  224  A    between atoms: _559  and  _560
REMARK  225  A    between atoms: _562  and  _564
REMARK  226  A    between atoms: _564  and  _565
REMARK  227  A    between atoms: _564  and  _567
REMARK  228  A    between atoms: _567  and  _568
REMARK  229  A    between atoms: _571  and  _573
REMARK  230  A    between atoms: _573  and  _574
REMARK  231  A    between atoms: _573  and  _576
REMARK                            x       y       z     vdW  Elec       q    Type
REMARK                         _______ _______ _______ _____ _____    ______ ____
ROOT
ATOM      1  O   HOH     1       0.859  -0.774  18.593  0.00  0.00    +0.000 OA
ENDROOT
TORSDOF 0
