REMARK  Name = ../refined-set-2016/1bn1/1bn1_pocket.pdb
REMARK  155 active torsions:
REMARK  status: ('A' for Active; 'I' for Inactive)
REMARK    1  A    between atoms: _1  and  _3
REMARK    2  A    between atoms: _3  and  _4
REMARK    3  A    between atoms: _3  and  _6
REMARK    4  A    between atoms: _6  and  _7
REMARK    5  A    between atoms: _17  and  _19
REMARK    6  A    between atoms: _19  and  _20
REMARK    7  A    between atoms: _19  and  _22
REMARK    8  A    between atoms: _22  and  _23
REMARK    9  A    between atoms: _28  and  _29
REMARK   10  A    between atoms: _31  and  _33
REMARK   11  A    between atoms: _33  and  _34
REMARK   12  A    between atoms: _33  and  _36
REMARK   13  A    between atoms: _36  and  _37
REMARK   14  A    between atoms: _40  and  _41
REMARK   15  A    between atoms: _46  and  _48
REMARK   16  A    between atoms: _48  and  _49
REMARK   17  A    between atoms: _48  and  _51
REMARK   18  A    between atoms: _51  and  _52
REMARK   19  A    between atoms: _57  and  _59
REMARK   20  A    between atoms: _59  and  _60
REMARK   21  A    between atoms: _63  and  _65
REMARK   22  A    between atoms: _65  and  _66
REMARK   23  A    between atoms: _65  and  _68
REMARK   24  A    between atoms: _68  and  _69
REMARK   25  A    between atoms: _74  and  _76
REMARK   26  A    between atoms: _76  and  _77
REMARK   27  A    between atoms: _76  and  _79
REMARK   28  A    between atoms: _79  and  _80
REMARK   29  A    between atoms: _83  and  _85
REMARK   30  A    between atoms: _85  and  _86
REMARK   31  A    between atoms: _85  and  _88
REMARK   32  A    between atoms: _88  and  _89
REMARK   33  A    between atoms: _89  and  _90
REMARK   34  A    between atoms: _95  and  _97
REMARK   35  A    between atoms: _97  and  _98
REMARK   36  A    between atoms: _97  and  _100
REMARK   37  A    between atoms: _100  and  _101
REMARK   38  A    between atoms: _107  and  _109
REMARK   39  A    between atoms: _120  and  _123
REMARK   40  A    between atoms: _123  and  _124
REMARK   41  A    between atoms: _132  and  _133
REMARK   42  A    between atoms: _141  and  _143
REMARK   43  A    between atoms: _143  and  _144
REMARK   44  A    between atoms: _143  and  _146
REMARK   45  A    between atoms: _146  and  _147
REMARK   46  A    between atoms: _147  and  _148
REMARK   47  A    between atoms: _151  and  _153
REMARK   48  A    between atoms: _153  and  _154
REMARK   49  A    between atoms: _153  and  _156
REMARK   50  A    between atoms: _156  and  _157
REMARK   51  A    between atoms: _162  and  _164
REMARK   52  A    between atoms: _164  and  _165
REMARK   53  A    between atoms: _164  and  _167
REMARK   54  A    between atoms: _167  and  _168
REMARK   55  A    between atoms: _168  and  _169
REMARK   56  A    between atoms: _172  and  _174
REMARK   57  A    between atoms: _174  and  _175
REMARK   58  A    between atoms: _174  and  _177
REMARK   59  A    between atoms: _177  and  _178
REMARK   60  A    between atoms: _181  and  _183
REMARK   61  A    between atoms: _183  and  _184
REMARK   62  A    between atoms: _183  and  _186
REMARK   63  A    between atoms: _186  and  _187
REMARK   64  A    between atoms: _188  and  ZN_428
REMARK   65  A    between atoms: _192  and  _194
REMARK   66  A    between atoms: _194  and  _195
REMARK   67  A    between atoms: _194  and  _197
REMARK   68  A    between atoms: _197  and  _198
REMARK   69  A    between atoms: _201  and  _203
REMARK   70  A    between atoms: _203  and  _204
REMARK   71  A    between atoms: _203  and  _206
REMARK   72  A    between atoms: _209  and  _211
REMARK   73  A    between atoms: _211  and  _212
REMARK   74  A    between atoms: _211  and  _214
REMARK   75  A    between atoms: _214  and  _215
REMARK   76  A    between atoms: _220  and  _222
REMARK   77  A    between atoms: _222  and  _223
REMARK   78  A    between atoms: _222  and  _225
REMARK   79  A    between atoms: _225  and  _226
REMARK   80  A    between atoms: _232  and  _234
REMARK   81  A    between atoms: _234  and  _235
REMARK   82  A    between atoms: _237  and  _239
REMARK   83  A    between atoms: _239  and  _240
REMARK   84  A    between atoms: _239  and  _242
REMARK   85  A    between atoms: _242  and  _243
REMARK   86  A    between atoms: _243  and  _244
REMARK   87  A    between atoms: _244  and  _245
REMARK   88  A    between atoms: _245  and  _246
REMARK   89  A    between atoms: _250  and  _252
REMARK   90  A    between atoms: _252  and  _253
REMARK   91  A    between atoms: _252  and  _255
REMARK   92  A    between atoms: _258  and  _260
REMARK   93  A    between atoms: _260  and  _261
REMARK   94  A    between atoms: _260  and  _263
REMARK   95  A    between atoms: _263  and  _264
REMARK   96  A    between atoms: _264  and  _265
REMARK   97  A    between atoms: _270  and  _272
REMARK   98  A    between atoms: _272  and  _273
REMARK   99  A    between atoms: _272  and  _275
REMARK  100  A    between atoms: _275  and  _276
REMARK  101  A    between atoms: _279  and  _281
REMARK  102  A    between atoms: _281  and  _282
REMARK  103  A    between atoms: _285  and  _287
REMARK  104  A    between atoms: _287  and  _288
REMARK  105  A    between atoms: _287  and  _290
REMARK  106  A    between atoms: _293  and  _295
REMARK  107  A    between atoms: _295  and  _296
REMARK  108  A    between atoms: _295  and  _298
REMARK  109  A    between atoms: _298  and  _299
REMARK  110  A    between atoms: _302  and  _304
REMARK  111  A    between atoms: _304  and  _305
REMARK  112  A    between atoms: _304  and  _307
REMARK  113  A    between atoms: _307  and  _308
REMARK  114  A    between atoms: _310  and  _312
REMARK  115  A    between atoms: _312  and  _313
REMARK  116  A    between atoms: _312  and  _315
REMARK  117  A    between atoms: _315  and  _316
REMARK  118  A    between atoms: _319  and  _321
REMARK  119  A    between atoms: _321  and  _322
REMARK  120  A    between atoms: _321  and  _324
REMARK  121  A    between atoms: _324  and  _325
REMARK  122  A    between atoms: _328  and  _330
REMARK  123  A    between atoms: _330  and  _331
REMARK  124  A    between atoms: _330  and  _333
REMARK  125  A    between atoms: _333  and  _334
REMARK  126  A    between atoms: _338  and  _339
REMARK  127  A    between atoms: _345  and  _346
REMARK  128  A    between atoms: _351  and  _353
REMARK  129  A    between atoms: _353  and  _354
REMARK  130  A    between atoms: _353  and  _356
REMARK  131  A    between atoms: _356  and  _357
REMARK  132  A    between atoms: _360  and  _362
REMARK  133  A    between atoms: _362  and  _363
REMARK  134  A    between atoms: _362  and  _365
REMARK  135  A    between atoms: _365  and  _366
REMARK  136  A    between atoms: _369  and  _371
REMARK  137  A    between atoms: _371  and  _372
REMARK  138  A    between atoms: _371  and  _374
REMARK  139  A    between atoms: _376  and  _378
REMARK  140  A    between atoms: _378  and  _379
REMARK  141  A    between atoms: _378  and  _381
REMARK  142  A    between atoms: _384  and  _386
REMARK  143  A    between atoms: _386  and  _387
REMARK  144  A    between atoms: _386  and  _389
REMARK  145  A    between atoms: _389  and  _390
REMARK  146  A    between atoms: _400  and  _402
REMARK  147  A    between atoms: _402  and  _403
REMARK  148  A    between atoms: _402  and  _405
REMARK  149  A    between atoms: _405  and  _406
REMARK  150  A    between atoms: _411  and  _413
REMARK  151  A    between atoms: _413  and  _414
REMARK  152  A    between atoms: _413  and  _416
REMARK  153  A    between atoms: _416  and  _417
REMARK  154  A    between atoms: _417  and  _418
REMARK  155  A    between atoms: _418  and  _419
REMARK                            x       y       z     vdW  Elec       q    Type
REMARK                         _______ _______ _______ _____ _____    ______ ____
ROOT
ATOM      1  CG  TRP A   1       5.501   0.210  12.267  0.00  0.00    -0.002 A 
ATOM      2  CD2 TRP A   1       4.159  -0.277  12.174  0.00  0.00    +0.013 A 
ATOM      3  CE3 TRP A   1       3.562  -1.525  12.395  0.00  0.00    +0.001 A 
ATOM      4  CZ3 TRP A   1       2.194  -1.650  12.217  0.00  0.00    +0.000 A 
ATOM      5  CH2 TRP A   1       1.417  -0.554  11.821  0.00  0.00    +0.001 A 
ATOM      6  CZ2 TRP A   1       1.975   0.680  11.594  0.00  0.00    +0.017 A 
ATOM      7  CE2 TRP A   1       3.348   0.807  11.775  0.00  0.00    +0.056 A 
ATOM      8  NE1 TRP A   1       4.162   1.901  11.633  0.00  0.00    -0.352 N 
ATOM      9  HE1 TRP A   1       3.853   2.853  11.349  0.00  0.00    +0.166 HD
ATOM     10  CD1 TRP A   1       5.451   1.535  11.927  0.00  0.00    +0.068 A 
ENDROOT
BRANCH   1  11
ATOM     11  CB  TRP A   1       6.721  -0.585  12.678  0.00  0.00    +0.053 C 
BRANCH  11  12
ATOM     12  CA  TRP A   1       7.458  -1.244  11.509  0.00  0.00    +0.137 C 
BRANCH  12  13
ATOM     13  N   TRP A   1       8.054  -0.223  10.669  0.00  0.00    -0.239 NA
ATOM     14  H   TRP A   1       7.814   0.775  10.835  0.00  0.00    +0.142 HD
ENDBRANCH  12  13
BRANCH  12  15
ATOM     15  C   TRP A   1       6.495  -2.101  10.692  0.00  0.00    +0.224 C 
ATOM     16  O   TRP A   1       5.997  -1.678   9.638  0.00  0.00    -0.287 OA
ENDBRANCH  12  15
ENDBRANCH  11  12
ENDBRANCH   1  11
TORSDOF 4
REMARK  Name = ../refined-set-2016/1bn1/1bn1_pocket.pdb
REMARK  155 active torsions:
REMARK  status: ('A' for Active; 'I' for Inactive)
REMARK    1  A    between atoms: _1  and  _3
REMARK    2  A    between atoms: _3  and  _4
REMARK    3  A    between atoms: _3  and  _6
REMARK    4  A    between atoms: _6  and  _7
REMARK    5  A    between atoms: _17  and  _19
REMARK    6  A    between atoms: _19  and  _20
REMARK    7  A    between atoms: _19  and  _22
REMARK    8  A    between atoms: _22  and  _23
REMARK    9  A    between atoms: _28  and  _29
REMARK   10  A    between atoms: _31  and  _33
REMARK   11  A    between atoms: _33  and  _34
REMARK   12  A    between atoms: _33  and  _36
REMARK   13  A    between atoms: _36  and  _37
REMARK   14  A    between atoms: _40  and  _41
REMARK   15  A    between atoms: _46  and  _48
REMARK   16  A    between atoms: _48  and  _49
REMARK   17  A    between atoms: _48  and  _51
REMARK   18  A    between atoms: _51  and  _52
REMARK   19  A    between atoms: _57  and  _59
REMARK   20  A    between atoms: _59  and  _60
REMARK   21  A    between atoms: _63  and  _65
REMARK   22  A    between atoms: _65  and  _66
REMARK   23  A    between atoms: _65  and  _68
REMARK   24  A    between atoms: _68  and  _69
REMARK   25  A    between atoms: _74  and  _76
REMARK   26  A    between atoms: _76  and  _77
REMARK   27  A    between atoms: _76  and  _79
REMARK   28  A    between atoms: _79  and  _80
REMARK   29  A    between atoms: _83  and  _85
REMARK   30  A    between atoms: _85  and  _86
REMARK   31  A    between atoms: _85  and  _88
REMARK   32  A    between atoms: _88  and  _89
REMARK   33  A    between atoms: _89  and  _90
REMARK   34  A    between atoms: _95  and  _97
REMARK   35  A    between atoms: _97  and  _98
REMARK   36  A    between atoms: _97  and  _100
REMARK   37  A    between atoms: _100  and  _101
REMARK   38  A    between atoms: _107  and  _109
REMARK   39  A    between atoms: _120  and  _123
REMARK   40  A    between atoms: _123  and  _124
REMARK   41  A    between atoms: _132  and  _133
REMARK   42  A    between atoms: _141  and  _143
REMARK   43  A    between atoms: _143  and  _144
REMARK   44  A    between atoms: _143  and  _146
REMARK   45  A    between atoms: _146  and  _147
REMARK   46  A    between atoms: _147  and  _148
REMARK   47  A    between atoms: _151  and  _153
REMARK   48  A    between atoms: _153  and  _154
REMARK   49  A    between atoms: _153  and  _156
REMARK   50  A    between atoms: _156  and  _157
REMARK   51  A    between atoms: _162  and  _164
REMARK   52  A    between atoms: _164  and  _165
REMARK   53  A    between atoms: _164  and  _167
REMARK   54  A    between atoms: _167  and  _168
REMARK   55  A    between atoms: _168  and  _169
REMARK   56  A    between atoms: _172  and  _174
REMARK   57  A    between atoms: _174  and  _175
REMARK   58  A    between atoms: _174  and  _177
REMARK   59  A    between atoms: _177  and  _178
REMARK   60  A    between atoms: _181  and  _183
REMARK   61  A    between atoms: _183  and  _184
REMARK   62  A    between atoms: _183  and  _186
REMARK   63  A    between atoms: _186  and  _187
REMARK   64  A    between atoms: _188  and  ZN_428
REMARK   65  A    between atoms: _192  and  _194
REMARK   66  A    between atoms: _194  and  _195
REMARK   67  A    between atoms: _194  and  _197
REMARK   68  A    between atoms: _197  and  _198
REMARK   69  A    between atoms: _201  and  _203
REMARK   70  A    between atoms: _203  and  _204
REMARK   71  A    between atoms: _203  and  _206
REMARK   72  A    between atoms: _209  and  _211
REMARK   73  A    between atoms: _211  and  _212
REMARK   74  A    between atoms: _211  and  _214
REMARK   75  A    between atoms: _214  and  _215
REMARK   76  A    between atoms: _220  and  _222
REMARK   77  A    between atoms: _222  and  _223
REMARK   78  A    between atoms: _222  and  _225
REMARK   79  A    between atoms: _225  and  _226
REMARK   80  A    between atoms: _232  and  _234
REMARK   81  A    between atoms: _234  and  _235
REMARK   82  A    between atoms: _237  and  _239
REMARK   83  A    between atoms: _239  and  _240
REMARK   84  A    between atoms: _239  and  _242
REMARK   85  A    between atoms: _242  and  _243
REMARK   86  A    between atoms: _243  and  _244
REMARK   87  A    between atoms: _244  and  _245
REMARK   88  A    between atoms: _245  and  _246
REMARK   89  A    between atoms: _250  and  _252
REMARK   90  A    between atoms: _252  and  _253
REMARK   91  A    between atoms: _252  and  _255
REMARK   92  A    between atoms: _258  and  _260
REMARK   93  A    between atoms: _260  and  _261
REMARK   94  A    between atoms: _260  and  _263
REMARK   95  A    between atoms: _263  and  _264
REMARK   96  A    between atoms: _264  and  _265
REMARK   97  A    between atoms: _270  and  _272
REMARK   98  A    between atoms: _272  and  _273
REMARK   99  A    between atoms: _272  and  _275
REMARK  100  A    between atoms: _275  and  _276
REMARK  101  A    between atoms: _279  and  _281
REMARK  102  A    between atoms: _281  and  _282
REMARK  103  A    between atoms: _285  and  _287
REMARK  104  A    between atoms: _287  and  _288
REMARK  105  A    between atoms: _287  and  _290
REMARK  106  A    between atoms: _293  and  _295
REMARK  107  A    between atoms: _295  and  _296
REMARK  108  A    between atoms: _295  and  _298
REMARK  109  A    between atoms: _298  and  _299
REMARK  110  A    between atoms: _302  and  _304
REMARK  111  A    between atoms: _304  and  _305
REMARK  112  A    between atoms: _304  and  _307
REMARK  113  A    between atoms: _307  and  _308
REMARK  114  A    between atoms: _310  and  _312
REMARK  115  A    between atoms: _312  and  _313
REMARK  116  A    between atoms: _312  and  _315
REMARK  117  A    between atoms: _315  and  _316
REMARK  118  A    between atoms: _319  and  _321
REMARK  119  A    between atoms: _321  and  _322
REMARK  120  A    between atoms: _321  and  _324
REMARK  121  A    between atoms: _324  and  _325
REMARK  122  A    between atoms: _328  and  _330
REMARK  123  A    between atoms: _330  and  _331
REMARK  124  A    between atoms: _330  and  _333
REMARK  125  A    between atoms: _333  and  _334
REMARK  126  A    between atoms: _338  and  _339
REMARK  127  A    between atoms: _345  and  _346
REMARK  128  A    between atoms: _351  and  _353
REMARK  129  A    between atoms: _353  and  _354
REMARK  130  A    between atoms: _353  and  _356
REMARK  131  A    between atoms: _356  and  _357
REMARK  132  A    between atoms: _360  and  _362
REMARK  133  A    between atoms: _362  and  _363
REMARK  134  A    between atoms: _362  and  _365
REMARK  135  A    between atoms: _365  and  _366
REMARK  136  A    between atoms: _369  and  _371
REMARK  137  A    between atoms: _371  and  _372
REMARK  138  A    between atoms: _371  and  _374
REMARK  139  A    between atoms: _376  and  _378
REMARK  140  A    between atoms: _378  and  _379
REMARK  141  A    between atoms: _378  and  _381
REMARK  142  A    between atoms: _384  and  _386
REMARK  143  A    between atoms: _386  and  _387
REMARK  144  A    between atoms: _386  and  _389
REMARK  145  A    between atoms: _389  and  _390
REMARK  146  A    between atoms: _400  and  _402
REMARK  147  A    between atoms: _402  and  _403
REMARK  148  A    between atoms: _402  and  _405
REMARK  149  A    between atoms: _405  and  _406
REMARK  150  A    between atoms: _411  and  _413
REMARK  151  A    between atoms: _413  and  _414
REMARK  152  A    between atoms: _413  and  _416
REMARK  153  A    between atoms: _416  and  _417
REMARK  154  A    between atoms: _417  and  _418
REMARK  155  A    between atoms: _418  and  _419
REMARK                            x       y       z     vdW  Elec       q    Type
REMARK                         _______ _______ _______ _____ _____    ______ ____
ROOT
ATOM      1  CG  TYR A   1       1.894  -6.899  11.940  0.00  0.00    -0.020 A 
ATOM      2  CD2 TYR A   1       1.506  -6.896  13.278  0.00  0.00    -0.001 A 
ATOM      3  CE2 TYR A   1       0.662  -5.925  13.778  0.00  0.00    +0.036 A 
ATOM      4  CZ  TYR A   1       0.183  -4.937  12.931  0.00  0.00    +0.134 A 
ATOM      5  CE1 TYR A   1       0.556  -4.912  11.589  0.00  0.00    +0.036 A 
ATOM      6  CD1 TYR A   1       1.414  -5.894  11.105  0.00  0.00    -0.001 A 
ENDROOT
BRANCH   4   7
ATOM      7  OH  TYR A   1      -0.677  -3.995  13.429  0.00  0.00    -0.506 OA
ATOM      8  HH  TYR A   1      -0.829  -4.165  14.392  0.00  0.00    +0.292 HD
ENDBRANCH   4   7
BRANCH   1   9
ATOM      9  CB  TYR A   1       2.800  -7.971  11.413  0.00  0.00    +0.051 C 
BRANCH   9  10
ATOM     10  CA  TYR A   1       4.268  -7.633  11.627  0.00  0.00    +0.137 C 
BRANCH  10  11
ATOM     11  N   TYR A   1       4.624  -6.464  10.843  0.00  0.00    -0.239 NA
ATOM     12  H   TYR A   1       4.613  -6.522   9.805  0.00  0.00    +0.142 HD
ENDBRANCH  10  11
BRANCH  10  13
ATOM     13  C   TYR A   1       5.146  -8.830  11.342  0.00  0.00    +0.224 C 
ATOM     14  O   TYR A   1       4.868  -9.933  11.800  0.00  0.00    -0.287 OA
ENDBRANCH  10  13
ENDBRANCH   9  10
ENDBRANCH   1   9
TORSDOF 5
REMARK  Name = ../refined-set-2016/1bn1/1bn1_pocket.pdb
REMARK  155 active torsions:
REMARK  status: ('A' for Active; 'I' for Inactive)
REMARK    1  A    between atoms: _1  and  _3
REMARK    2  A    between atoms: _3  and  _4
REMARK    3  A    between atoms: _3  and  _6
REMARK    4  A    between atoms: _6  and  _7
REMARK    5  A    between atoms: _17  and  _19
REMARK    6  A    between atoms: _19  and  _20
REMARK    7  A    between atoms: _19  and  _22
REMARK    8  A    between atoms: _22  and  _23
REMARK    9  A    between atoms: _28  and  _29
REMARK   10  A    between atoms: _31  and  _33
REMARK   11  A    between atoms: _33  and  _34
REMARK   12  A    between atoms: _33  and  _36
REMARK   13  A    between atoms: _36  and  _37
REMARK   14  A    between atoms: _40  and  _41
REMARK   15  A    between atoms: _46  and  _48
REMARK   16  A    between atoms: _48  and  _49
REMARK   17  A    between atoms: _48  and  _51
REMARK   18  A    between atoms: _51  and  _52
REMARK   19  A    between atoms: _57  and  _59
REMARK   20  A    between atoms: _59  and  _60
REMARK   21  A    between atoms: _63  and  _65
REMARK   22  A    between atoms: _65  and  _66
REMARK   23  A    between atoms: _65  and  _68
REMARK   24  A    between atoms: _68  and  _69
REMARK   25  A    between atoms: _74  and  _76
REMARK   26  A    between atoms: _76  and  _77
REMARK   27  A    between atoms: _76  and  _79
REMARK   28  A    between atoms: _79  and  _80
REMARK   29  A    between atoms: _83  and  _85
REMARK   30  A    between atoms: _85  and  _86
REMARK   31  A    between atoms: _85  and  _88
REMARK   32  A    between atoms: _88  and  _89
REMARK   33  A    between atoms: _89  and  _90
REMARK   34  A    between atoms: _95  and  _97
REMARK   35  A    between atoms: _97  and  _98
REMARK   36  A    between atoms: _97  and  _100
REMARK   37  A    between atoms: _100  and  _101
REMARK   38  A    between atoms: _107  and  _109
REMARK   39  A    between atoms: _120  and  _123
REMARK   40  A    between atoms: _123  and  _124
REMARK   41  A    between atoms: _132  and  _133
REMARK   42  A    between atoms: _141  and  _143
REMARK   43  A    between atoms: _143  and  _144
REMARK   44  A    between atoms: _143  and  _146
REMARK   45  A    between atoms: _146  and  _147
REMARK   46  A    between atoms: _147  and  _148
REMARK   47  A    between atoms: _151  and  _153
REMARK   48  A    between atoms: _153  and  _154
REMARK   49  A    between atoms: _153  and  _156
REMARK   50  A    between atoms: _156  and  _157
REMARK   51  A    between atoms: _162  and  _164
REMARK   52  A    between atoms: _164  and  _165
REMARK   53  A    between atoms: _164  and  _167
REMARK   54  A    between atoms: _167  and  _168
REMARK   55  A    between atoms: _168  and  _169
REMARK   56  A    between atoms: _172  and  _174
REMARK   57  A    between atoms: _174  and  _175
REMARK   58  A    between atoms: _174  and  _177
REMARK   59  A    between atoms: _177  and  _178
REMARK   60  A    between atoms: _181  and  _183
REMARK   61  A    between atoms: _183  and  _184
REMARK   62  A    between atoms: _183  and  _186
REMARK   63  A    between atoms: _186  and  _187
REMARK   64  A    between atoms: _188  and  ZN_428
REMARK   65  A    between atoms: _192  and  _194
REMARK   66  A    between atoms: _194  and  _195
REMARK   67  A    between atoms: _194  and  _197
REMARK   68  A    between atoms: _197  and  _198
REMARK   69  A    between atoms: _201  and  _203
REMARK   70  A    between atoms: _203  and  _204
REMARK   71  A    between atoms: _203  and  _206
REMARK   72  A    between atoms: _209  and  _211
REMARK   73  A    between atoms: _211  and  _212
REMARK   74  A    between atoms: _211  and  _214
REMARK   75  A    between atoms: _214  and  _215
REMARK   76  A    between atoms: _220  and  _222
REMARK   77  A    between atoms: _222  and  _223
REMARK   78  A    between atoms: _222  and  _225
REMARK   79  A    between atoms: _225  and  _226
REMARK   80  A    between atoms: _232  and  _234
REMARK   81  A    between atoms: _234  and  _235
REMARK   82  A    between atoms: _237  and  _239
REMARK   83  A    between atoms: _239  and  _240
REMARK   84  A    between atoms: _239  and  _242
REMARK   85  A    between atoms: _242  and  _243
REMARK   86  A    between atoms: _243  and  _244
REMARK   87  A    between atoms: _244  and  _245
REMARK   88  A    between atoms: _245  and  _246
REMARK   89  A    between atoms: _250  and  _252
REMARK   90  A    between atoms: _252  and  _253
REMARK   91  A    between atoms: _252  and  _255
REMARK   92  A    between atoms: _258  and  _260
REMARK   93  A    between atoms: _260  and  _261
REMARK   94  A    between atoms: _260  and  _263
REMARK   95  A    between atoms: _263  and  _264
REMARK   96  A    between atoms: _264  and  _265
REMARK   97  A    between atoms: _270  and  _272
REMARK   98  A    between atoms: _272  and  _273
REMARK   99  A    between atoms: _272  and  _275
REMARK  100  A    between atoms: _275  and  _276
REMARK  101  A    between atoms: _279  and  _281
REMARK  102  A    between atoms: _281  and  _282
REMARK  103  A    between atoms: _285  and  _287
REMARK  104  A    between atoms: _287  and  _288
REMARK  105  A    between atoms: _287  and  _290
REMARK  106  A    between atoms: _293  and  _295
REMARK  107  A    between atoms: _295  and  _296
REMARK  108  A    between atoms: _295  and  _298
REMARK  109  A    between atoms: _298  and  _299
REMARK  110  A    between atoms: _302  and  _304
REMARK  111  A    between atoms: _304  and  _305
REMARK  112  A    between atoms: _304  and  _307
REMARK  113  A    between atoms: _307  and  _308
REMARK  114  A    between atoms: _310  and  _312
REMARK  115  A    between atoms: _312  and  _313
REMARK  116  A    between atoms: _312  and  _315
REMARK  117  A    between atoms: _315  and  _316
REMARK  118  A    between atoms: _319  and  _321
REMARK  119  A    between atoms: _321  and  _322
REMARK  120  A    between atoms: _321  and  _324
REMARK  121  A    between atoms: _324  and  _325
REMARK  122  A    between atoms: _328  and  _330
REMARK  123  A    between atoms: _330  and  _331
REMARK  124  A    between atoms: _330  and  _333
REMARK  125  A    between atoms: _333  and  _334
REMARK  126  A    between atoms: _338  and  _339
REMARK  127  A    between atoms: _345  and  _346
REMARK  128  A    between atoms: _351  and  _353
REMARK  129  A    between atoms: _353  and  _354
REMARK  130  A    between atoms: _353  and  _356
REMARK  131  A    between atoms: _356  and  _357
REMARK  132  A    between atoms: _360  and  _362
REMARK  133  A    between atoms: _362  and  _363
REMARK  134  A    between atoms: _362  and  _365
REMARK  135  A    between atoms: _365  and  _366
REMARK  136  A    between atoms: _369  and  _371
REMARK  137  A    between atoms: _371  and  _372
REMARK  138  A    between atoms: _371  and  _374
REMARK  139  A    between atoms: _376  and  _378
REMARK  140  A    between atoms: _378  and  _379
REMARK  141  A    between atoms: _378  and  _381
REMARK  142  A    between atoms: _384  and  _386
REMARK  143  A    between atoms: _386  and  _387
REMARK  144  A    between atoms: _386  and  _389
REMARK  145  A    between atoms: _389  and  _390
REMARK  146  A    between atoms: _400  and  _402
REMARK  147  A    between atoms: _402  and  _403
REMARK  148  A    between atoms: _402  and  _405
REMARK  149  A    between atoms: _405  and  _406
REMARK  150  A    between atoms: _411  and  _413
REMARK  151  A    between atoms: _413  and  _414
REMARK  152  A    between atoms: _413  and  _416
REMARK  153  A    between atoms: _416  and  _417
REMARK  154  A    between atoms: _417  and  _418
REMARK  155  A    between atoms: _418  and  _419
REMARK                            x       y       z     vdW  Elec       q    Type
REMARK                         _______ _______ _______ _____ _____    ______ ____
ROOT
ATOM      1  C   SER A   1      -2.482  -3.262  23.450  0.00  0.00    +0.244 C 
ATOM      2  N   PRO A   2      -3.123  -4.403  23.173  0.00  0.00    -0.273 N 
ATOM      3  CA  PRO A   2      -4.335  -4.863  23.858  0.00  0.00    +0.140 C 
ATOM      4  CB  PRO A   2      -4.936  -5.815  22.840  0.00  0.00    +0.030 C 
ATOM      5  CG  PRO A   2      -3.702  -6.467  22.282  0.00  0.00    +0.024 C 
ATOM      6  CD  PRO A   2      -2.773  -5.299  22.060  0.00  0.00    +0.094 C 
ATOM      7  O   SER A   1      -1.495  -2.902  22.806  0.00  0.00    -0.273 OA
ENDROOT
BRANCH   3   8
ATOM      8  C   PRO A   2      -3.967  -5.592  25.148  0.00  0.00    +0.227 C 
ATOM      9  O   PRO A   2      -2.788  -5.705  25.488  0.00  0.00    -0.286 OA
ENDBRANCH   3   8
BRANCH   1  10
ATOM     10  CA  SER A   1      -3.070  -2.384  24.566  0.00  0.00    +0.175 C 
BRANCH  10  11
ATOM     11  N   SER A   1      -2.038  -1.461  25.012  0.00  0.00    -0.236 NA
ATOM     12  H   SER A   1      -1.633  -0.803  24.316  0.00  0.00    +0.142 HD
ENDBRANCH  10  11
BRANCH  10  13
ATOM     13  CB  SER A   1      -4.285  -1.609  24.020  0.00  0.00    +0.163 C 
BRANCH  13  14
ATOM     14  OG  SER A   1      -4.865  -0.778  25.010  0.00  0.00    -0.380 OA
ATOM     15  H   SER A   1      -5.166  -1.335  25.771  0.00  0.00    +0.211 HD
ENDBRANCH  13  14
ENDBRANCH  10  13
ENDBRANCH   1  10
TORSDOF 5
REMARK  Name = ../refined-set-2016/1bn1/1bn1_pocket.pdb
REMARK  155 active torsions:
REMARK  status: ('A' for Active; 'I' for Inactive)
REMARK    1  A    between atoms: _1  and  _3
REMARK    2  A    between atoms: _3  and  _4
REMARK    3  A    between atoms: _3  and  _6
REMARK    4  A    between atoms: _6  and  _7
REMARK    5  A    between atoms: _17  and  _19
REMARK    6  A    between atoms: _19  and  _20
REMARK    7  A    between atoms: _19  and  _22
REMARK    8  A    between atoms: _22  and  _23
REMARK    9  A    between atoms: _28  and  _29
REMARK   10  A    between atoms: _31  and  _33
REMARK   11  A    between atoms: _33  and  _34
REMARK   12  A    between atoms: _33  and  _36
REMARK   13  A    between atoms: _36  and  _37
REMARK   14  A    between atoms: _40  and  _41
REMARK   15  A    between atoms: _46  and  _48
REMARK   16  A    between atoms: _48  and  _49
REMARK   17  A    between atoms: _48  and  _51
REMARK   18  A    between atoms: _51  and  _52
REMARK   19  A    between atoms: _57  and  _59
REMARK   20  A    between atoms: _59  and  _60
REMARK   21  A    between atoms: _63  and  _65
REMARK   22  A    between atoms: _65  and  _66
REMARK   23  A    between atoms: _65  and  _68
REMARK   24  A    between atoms: _68  and  _69
REMARK   25  A    between atoms: _74  and  _76
REMARK   26  A    between atoms: _76  and  _77
REMARK   27  A    between atoms: _76  and  _79
REMARK   28  A    between atoms: _79  and  _80
REMARK   29  A    between atoms: _83  and  _85
REMARK   30  A    between atoms: _85  and  _86
REMARK   31  A    between atoms: _85  and  _88
REMARK   32  A    between atoms: _88  and  _89
REMARK   33  A    between atoms: _89  and  _90
REMARK   34  A    between atoms: _95  and  _97
REMARK   35  A    between atoms: _97  and  _98
REMARK   36  A    between atoms: _97  and  _100
REMARK   37  A    between atoms: _100  and  _101
REMARK   38  A    between atoms: _107  and  _109
REMARK   39  A    between atoms: _120  and  _123
REMARK   40  A    between atoms: _123  and  _124
REMARK   41  A    between atoms: _132  and  _133
REMARK   42  A    between atoms: _141  and  _143
REMARK   43  A    between atoms: _143  and  _144
REMARK   44  A    between atoms: _143  and  _146
REMARK   45  A    between atoms: _146  and  _147
REMARK   46  A    between atoms: _147  and  _148
REMARK   47  A    between atoms: _151  and  _153
REMARK   48  A    between atoms: _153  and  _154
REMARK   49  A    between atoms: _153  and  _156
REMARK   50  A    between atoms: _156  and  _157
REMARK   51  A    between atoms: _162  and  _164
REMARK   52  A    between atoms: _164  and  _165
REMARK   53  A    between atoms: _164  and  _167
REMARK   54  A    between atoms: _167  and  _168
REMARK   55  A    between atoms: _168  and  _169
REMARK   56  A    between atoms: _172  and  _174
REMARK   57  A    between atoms: _174  and  _175
REMARK   58  A    between atoms: _174  and  _177
REMARK   59  A    between atoms: _177  and  _178
REMARK   60  A    between atoms: _181  and  _183
REMARK   61  A    between atoms: _183  and  _184
REMARK   62  A    between atoms: _183  and  _186
REMARK   63  A    between atoms: _186  and  _187
REMARK   64  A    between atoms: _188  and  ZN_428
REMARK   65  A    between atoms: _192  and  _194
REMARK   66  A    between atoms: _194  and  _195
REMARK   67  A    between atoms: _194  and  _197
REMARK   68  A    between atoms: _197  and  _198
REMARK   69  A    between atoms: _201  and  _203
REMARK   70  A    between atoms: _203  and  _204
REMARK   71  A    between atoms: _203  and  _206
REMARK   72  A    between atoms: _209  and  _211
REMARK   73  A    between atoms: _211  and  _212
REMARK   74  A    between atoms: _211  and  _214
REMARK   75  A    between atoms: _214  and  _215
REMARK   76  A    between atoms: _220  and  _222
REMARK   77  A    between atoms: _222  and  _223
REMARK   78  A    between atoms: _222  and  _225
REMARK   79  A    between atoms: _225  and  _226
REMARK   80  A    between atoms: _232  and  _234
REMARK   81  A    between atoms: _234  and  _235
REMARK   82  A    between atoms: _237  and  _239
REMARK   83  A    between atoms: _239  and  _240
REMARK   84  A    between atoms: _239  and  _242
REMARK   85  A    between atoms: _242  and  _243
REMARK   86  A    between atoms: _243  and  _244
REMARK   87  A    between atoms: _244  and  _245
REMARK   88  A    between atoms: _245  and  _246
REMARK   89  A    between atoms: _250  and  _252
REMARK   90  A    between atoms: _252  and  _253
REMARK   91  A    between atoms: _252  and  _255
REMARK   92  A    between atoms: _258  and  _260
REMARK   93  A    between atoms: _260  and  _261
REMARK   94  A    between atoms: _260  and  _263
REMARK   95  A    between atoms: _263  and  _264
REMARK   96  A    between atoms: _264  and  _265
REMARK   97  A    between atoms: _270  and  _272
REMARK   98  A    between atoms: _272  and  _273
REMARK   99  A    between atoms: _272  and  _275
REMARK  100  A    between atoms: _275  and  _276
REMARK  101  A    between atoms: _279  and  _281
REMARK  102  A    between atoms: _281  and  _282
REMARK  103  A    between atoms: _285  and  _287
REMARK  104  A    between atoms: _287  and  _288
REMARK  105  A    between atoms: _287  and  _290
REMARK  106  A    between atoms: _293  and  _295
REMARK  107  A    between atoms: _295  and  _296
REMARK  108  A    between atoms: _295  and  _298
REMARK  109  A    between atoms: _298  and  _299
REMARK  110  A    between atoms: _302  and  _304
REMARK  111  A    between atoms: _304  and  _305
REMARK  112  A    between atoms: _304  and  _307
REMARK  113  A    between atoms: _307  and  _308
REMARK  114  A    between atoms: _310  and  _312
REMARK  115  A    between atoms: _312  and  _313
REMARK  116  A    between atoms: _312  and  _315
REMARK  117  A    between atoms: _315  and  _316
REMARK  118  A    between atoms: _319  and  _321
REMARK  119  A    between atoms: _321  and  _322
REMARK  120  A    between atoms: _321  and  _324
REMARK  121  A    between atoms: _324  and  _325
REMARK  122  A    between atoms: _328  and  _330
REMARK  123  A    between atoms: _330  and  _331
REMARK  124  A    between atoms: _330  and  _333
REMARK  125  A    between atoms: _333  and  _334
REMARK  126  A    between atoms: _338  and  _339
REMARK  127  A    between atoms: _345  and  _346
REMARK  128  A    between atoms: _351  and  _353
REMARK  129  A    between atoms: _353  and  _354
REMARK  130  A    between atoms: _353  and  _356
REMARK  131  A    between atoms: _356  and  _357
REMARK  132  A    between atoms: _360  and  _362
REMARK  133  A    between atoms: _362  and  _363
REMARK  134  A    between atoms: _362  and  _365
REMARK  135  A    between atoms: _365  and  _366
REMARK  136  A    between atoms: _369  and  _371
REMARK  137  A    between atoms: _371  and  _372
REMARK  138  A    between atoms: _371  and  _374
REMARK  139  A    between atoms: _376  and  _378
REMARK  140  A    between atoms: _378  and  _379
REMARK  141  A    between atoms: _378  and  _381
REMARK  142  A    between atoms: _384  and  _386
REMARK  143  A    between atoms: _386  and  _387
REMARK  144  A    between atoms: _386  and  _389
REMARK  145  A    between atoms: _389  and  _390
REMARK  146  A    between atoms: _400  and  _402
REMARK  147  A    between atoms: _402  and  _403
REMARK  148  A    between atoms: _402  and  _405
REMARK  149  A    between atoms: _405  and  _406
REMARK  150  A    between atoms: _411  and  _413
REMARK  151  A    between atoms: _413  and  _414
REMARK  152  A    between atoms: _413  and  _416
REMARK  153  A    between atoms: _416  and  _417
REMARK  154  A    between atoms: _417  and  _418
REMARK  155  A    between atoms: _418  and  _419
REMARK                            x       y       z     vdW  Elec       q    Type
REMARK                         _______ _______ _______ _____ _____    ______ ____
ROOT
ATOM      1  CB  ASN A   1      -2.815   2.029   5.325  0.00  0.00    +0.110 C 
ENDROOT
BRANCH   1   2
ATOM      2  CG  ASN A   1      -3.094   1.167   6.543  0.00  0.00    +0.221 C 
ATOM      3  ND2 ASN A   1      -3.519   1.800   7.614  0.00  0.00    -0.329 N 
ATOM      4 HD21 ASN A   1      -3.725   1.269   8.484  0.00  0.00    +0.145 HD
ATOM      5 HD22 ASN A   1      -3.649   2.832   7.591  0.00  0.00    +0.145 HD
ATOM      6  OD1 ASN A   1      -2.926  -0.046   6.524  0.00  0.00    -0.275 OA
ENDBRANCH   1   2
BRANCH   1   7
ATOM      7  CA  ASN A   1      -2.430   1.211   4.090  0.00  0.00    +0.142 C 
BRANCH   7   8
ATOM      8  N   ASN A   1      -3.540   0.353   3.668  0.00  0.00    -0.239 NA
ATOM      9  H   ASN A   1      -4.077  -0.181   4.381  0.00  0.00    +0.142 HD
ENDBRANCH   7   8
BRANCH   7  10
ATOM     10  C   ASN A   1      -1.145   0.421   4.353  0.00  0.00    +0.225 C 
ATOM     11  O   ASN A   1      -0.201   0.930   4.967  0.00  0.00    -0.287 OA
ENDBRANCH   7  10
ENDBRANCH   1   7
TORSDOF 4
REMARK  Name = ../refined-set-2016/1bn1/1bn1_pocket.pdb
REMARK  155 active torsions:
REMARK  status: ('A' for Active; 'I' for Inactive)
REMARK    1  A    between atoms: _1  and  _3
REMARK    2  A    between atoms: _3  and  _4
REMARK    3  A    between atoms: _3  and  _6
REMARK    4  A    between atoms: _6  and  _7
REMARK    5  A    between atoms: _17  and  _19
REMARK    6  A    between atoms: _19  and  _20
REMARK    7  A    between atoms: _19  and  _22
REMARK    8  A    between atoms: _22  and  _23
REMARK    9  A    between atoms: _28  and  _29
REMARK   10  A    between atoms: _31  and  _33
REMARK   11  A    between atoms: _33  and  _34
REMARK   12  A    between atoms: _33  and  _36
REMARK   13  A    between atoms: _36  and  _37
REMARK   14  A    between atoms: _40  and  _41
REMARK   15  A    between atoms: _46  and  _48
REMARK   16  A    between atoms: _48  and  _49
REMARK   17  A    between atoms: _48  and  _51
REMARK   18  A    between atoms: _51  and  _52
REMARK   19  A    between atoms: _57  and  _59
REMARK   20  A    between atoms: _59  and  _60
REMARK   21  A    between atoms: _63  and  _65
REMARK   22  A    between atoms: _65  and  _66
REMARK   23  A    between atoms: _65  and  _68
REMARK   24  A    between atoms: _68  and  _69
REMARK   25  A    between atoms: _74  and  _76
REMARK   26  A    between atoms: _76  and  _77
REMARK   27  A    between atoms: _76  and  _79
REMARK   28  A    between atoms: _79  and  _80
REMARK   29  A    between atoms: _83  and  _85
REMARK   30  A    between atoms: _85  and  _86
REMARK   31  A    between atoms: _85  and  _88
REMARK   32  A    between atoms: _88  and  _89
REMARK   33  A    between atoms: _89  and  _90
REMARK   34  A    between atoms: _95  and  _97
REMARK   35  A    between atoms: _97  and  _98
REMARK   36  A    between atoms: _97  and  _100
REMARK   37  A    between atoms: _100  and  _101
REMARK   38  A    between atoms: _107  and  _109
REMARK   39  A    between atoms: _120  and  _123
REMARK   40  A    between atoms: _123  and  _124
REMARK   41  A    between atoms: _132  and  _133
REMARK   42  A    between atoms: _141  and  _143
REMARK   43  A    between atoms: _143  and  _144
REMARK   44  A    between atoms: _143  and  _146
REMARK   45  A    between atoms: _146  and  _147
REMARK   46  A    between atoms: _147  and  _148
REMARK   47  A    between atoms: _151  and  _153
REMARK   48  A    between atoms: _153  and  _154
REMARK   49  A    between atoms: _153  and  _156
REMARK   50  A    between atoms: _156  and  _157
REMARK   51  A    between atoms: _162  and  _164
REMARK   52  A    between atoms: _164  and  _165
REMARK   53  A    between atoms: _164  and  _167
REMARK   54  A    between atoms: _167  and  _168
REMARK   55  A    between atoms: _168  and  _169
REMARK   56  A    between atoms: _172  and  _174
REMARK   57  A    between atoms: _174  and  _175
REMARK   58  A    between atoms: _174  and  _177
REMARK   59  A    between atoms: _177  and  _178
REMARK   60  A    between atoms: _181  and  _183
REMARK   61  A    between atoms: _183  and  _184
REMARK   62  A    between atoms: _183  and  _186
REMARK   63  A    between atoms: _186  and  _187
REMARK   64  A    between atoms: _188  and  ZN_428
REMARK   65  A    between atoms: _192  and  _194
REMARK   66  A    between atoms: _194  and  _195
REMARK   67  A    between atoms: _194  and  _197
REMARK   68  A    between atoms: _197  and  _198
REMARK   69  A    between atoms: _201  and  _203
REMARK   70  A    between atoms: _203  and  _204
REMARK   71  A    between atoms: _203  and  _206
REMARK   72  A    between atoms: _209  and  _211
REMARK   73  A    between atoms: _211  and  _212
REMARK   74  A    between atoms: _211  and  _214
REMARK   75  A    between atoms: _214  and  _215
REMARK   76  A    between atoms: _220  and  _222
REMARK   77  A    between atoms: _222  and  _223
REMARK   78  A    between atoms: _222  and  _225
REMARK   79  A    between atoms: _225  and  _226
REMARK   80  A    between atoms: _232  and  _234
REMARK   81  A    between atoms: _234  and  _235
REMARK   82  A    between atoms: _237  and  _239
REMARK   83  A    between atoms: _239  and  _240
REMARK   84  A    between atoms: _239  and  _242
REMARK   85  A    between atoms: _242  and  _243
REMARK   86  A    between atoms: _243  and  _244
REMARK   87  A    between atoms: _244  and  _245
REMARK   88  A    between atoms: _245  and  _246
REMARK   89  A    between atoms: _250  and  _252
REMARK   90  A    between atoms: _252  and  _253
REMARK   91  A    between atoms: _252  and  _255
REMARK   92  A    between atoms: _258  and  _260
REMARK   93  A    between atoms: _260  and  _261
REMARK   94  A    between atoms: _260  and  _263
REMARK   95  A    between atoms: _263  and  _264
REMARK   96  A    between atoms: _264  and  _265
REMARK   97  A    between atoms: _270  and  _272
REMARK   98  A    between atoms: _272  and  _273
REMARK   99  A    between atoms: _272  and  _275
REMARK  100  A    between atoms: _275  and  _276
REMARK  101  A    between atoms: _279  and  _281
REMARK  102  A    between atoms: _281  and  _282
REMARK  103  A    between atoms: _285  and  _287
REMARK  104  A    between atoms: _287  and  _288
REMARK  105  A    between atoms: _287  and  _290
REMARK  106  A    between atoms: _293  and  _295
REMARK  107  A    between atoms: _295  and  _296
REMARK  108  A    between atoms: _295  and  _298
REMARK  109  A    between atoms: _298  and  _299
REMARK  110  A    between atoms: _302  and  _304
REMARK  111  A    between atoms: _304  and  _305
REMARK  112  A    between atoms: _304  and  _307
REMARK  113  A    between atoms: _307  and  _308
REMARK  114  A    between atoms: _310  and  _312
REMARK  115  A    between atoms: _312  and  _313
REMARK  116  A    between atoms: _312  and  _315
REMARK  117  A    between atoms: _315  and  _316
REMARK  118  A    between atoms: _319  and  _321
REMARK  119  A    between atoms: _321  and  _322
REMARK  120  A    between atoms: _321  and  _324
REMARK  121  A    between atoms: _324  and  _325
REMARK  122  A    between atoms: _328  and  _330
REMARK  123  A    between atoms: _330  and  _331
REMARK  124  A    between atoms: _330  and  _333
REMARK  125  A    between atoms: _333  and  _334
REMARK  126  A    between atoms: _338  and  _339
REMARK  127  A    between atoms: _345  and  _346
REMARK  128  A    between atoms: _351  and  _353
REMARK  129  A    between atoms: _353  and  _354
REMARK  130  A    between atoms: _353  and  _356
REMARK  131  A    between atoms: _356  and  _357
REMARK  132  A    between atoms: _360  and  _362
REMARK  133  A    between atoms: _362  and  _363
REMARK  134  A    between atoms: _362  and  _365
REMARK  135  A    between atoms: _365  and  _366
REMARK  136  A    between atoms: _369  and  _371
REMARK  137  A    between atoms: _371  and  _372
REMARK  138  A    between atoms: _371  and  _374
REMARK  139  A    between atoms: _376  and  _378
REMARK  140  A    between atoms: _378  and  _379
REMARK  141  A    between atoms: _378  and  _381
REMARK  142  A    between atoms: _384  and  _386
REMARK  143  A    between atoms: _386  and  _387
REMARK  144  A    between atoms: _386  and  _389
REMARK  145  A    between atoms: _389  and  _390
REMARK  146  A    between atoms: _400  and  _402
REMARK  147  A    between atoms: _402  and  _403
REMARK  148  A    between atoms: _402  and  _405
REMARK  149  A    between atoms: _405  and  _406
REMARK  150  A    between atoms: _411  and  _413
REMARK  151  A    between atoms: _413  and  _414
REMARK  152  A    between atoms: _413  and  _416
REMARK  153  A    between atoms: _416  and  _417
REMARK  154  A    between atoms: _417  and  _418
REMARK  155  A    between atoms: _418  and  _419
REMARK                            x       y       z     vdW  Elec       q    Type
REMARK                         _______ _______ _______ _____ _____    ______ ____
ROOT
ATOM      1  CA  ALA A   1      -4.712  -3.276   7.249  0.00  0.00    +0.133 C 
ATOM      2  CB  ALA A   1      -5.313  -2.975   8.647  0.00  0.00    +0.027 C 
ENDROOT
BRANCH   1   3
ATOM      3  N   ALA A   1      -3.340  -2.780   7.169  0.00  0.00    -0.239 NA
ATOM      4  H   ALA A   1      -3.145  -1.966   6.552  0.00  0.00    +0.142 HD
ENDBRANCH   1   3
BRANCH   1   5
ATOM      5  C   ALA A   1      -5.457  -2.479   6.203  0.00  0.00    +0.224 C 
ATOM      6  O   ALA A   1      -4.847  -1.706   5.464  0.00  0.00    -0.287 OA
ENDBRANCH   1   5
TORSDOF 2
REMARK  Name = ../refined-set-2016/1bn1/1bn1_pocket.pdb
REMARK  155 active torsions:
REMARK  status: ('A' for Active; 'I' for Inactive)
REMARK    1  A    between atoms: _1  and  _3
REMARK    2  A    between atoms: _3  and  _4
REMARK    3  A    between atoms: _3  and  _6
REMARK    4  A    between atoms: _6  and  _7
REMARK    5  A    between atoms: _17  and  _19
REMARK    6  A    between atoms: _19  and  _20
REMARK    7  A    between atoms: _19  and  _22
REMARK    8  A    between atoms: _22  and  _23
REMARK    9  A    between atoms: _28  and  _29
REMARK   10  A    between atoms: _31  and  _33
REMARK   11  A    between atoms: _33  and  _34
REMARK   12  A    between atoms: _33  and  _36
REMARK   13  A    between atoms: _36  and  _37
REMARK   14  A    between atoms: _40  and  _41
REMARK   15  A    between atoms: _46  and  _48
REMARK   16  A    between atoms: _48  and  _49
REMARK   17  A    between atoms: _48  and  _51
REMARK   18  A    between atoms: _51  and  _52
REMARK   19  A    between atoms: _57  and  _59
REMARK   20  A    between atoms: _59  and  _60
REMARK   21  A    between atoms: _63  and  _65
REMARK   22  A    between atoms: _65  and  _66
REMARK   23  A    between atoms: _65  and  _68
REMARK   24  A    between atoms: _68  and  _69
REMARK   25  A    between atoms: _74  and  _76
REMARK   26  A    between atoms: _76  and  _77
REMARK   27  A    between atoms: _76  and  _79
REMARK   28  A    between atoms: _79  and  _80
REMARK   29  A    between atoms: _83  and  _85
REMARK   30  A    between atoms: _85  and  _86
REMARK   31  A    between atoms: _85  and  _88
REMARK   32  A    between atoms: _88  and  _89
REMARK   33  A    between atoms: _89  and  _90
REMARK   34  A    between atoms: _95  and  _97
REMARK   35  A    between atoms: _97  and  _98
REMARK   36  A    between atoms: _97  and  _100
REMARK   37  A    between atoms: _100  and  _101
REMARK   38  A    between atoms: _107  and  _109
REMARK   39  A    between atoms: _120  and  _123
REMARK   40  A    between atoms: _123  and  _124
REMARK   41  A    between atoms: _132  and  _133
REMARK   42  A    between atoms: _141  and  _143
REMARK   43  A    between atoms: _143  and  _144
REMARK   44  A    between atoms: _143  and  _146
REMARK   45  A    between atoms: _146  and  _147
REMARK   46  A    between atoms: _147  and  _148
REMARK   47  A    between atoms: _151  and  _153
REMARK   48  A    between atoms: _153  and  _154
REMARK   49  A    between atoms: _153  and  _156
REMARK   50  A    between atoms: _156  and  _157
REMARK   51  A    between atoms: _162  and  _164
REMARK   52  A    between atoms: _164  and  _165
REMARK   53  A    between atoms: _164  and  _167
REMARK   54  A    between atoms: _167  and  _168
REMARK   55  A    between atoms: _168  and  _169
REMARK   56  A    between atoms: _172  and  _174
REMARK   57  A    between atoms: _174  and  _175
REMARK   58  A    between atoms: _174  and  _177
REMARK   59  A    between atoms: _177  and  _178
REMARK   60  A    between atoms: _181  and  _183
REMARK   61  A    between atoms: _183  and  _184
REMARK   62  A    between atoms: _183  and  _186
REMARK   63  A    between atoms: _186  and  _187
REMARK   64  A    between atoms: _188  and  ZN_428
REMARK   65  A    between atoms: _192  and  _194
REMARK   66  A    between atoms: _194  and  _195
REMARK   67  A    between atoms: _194  and  _197
REMARK   68  A    between atoms: _197  and  _198
REMARK   69  A    between atoms: _201  and  _203
REMARK   70  A    between atoms: _203  and  _204
REMARK   71  A    between atoms: _203  and  _206
REMARK   72  A    between atoms: _209  and  _211
REMARK   73  A    between atoms: _211  and  _212
REMARK   74  A    between atoms: _211  and  _214
REMARK   75  A    between atoms: _214  and  _215
REMARK   76  A    between atoms: _220  and  _222
REMARK   77  A    between atoms: _222  and  _223
REMARK   78  A    between atoms: _222  and  _225
REMARK   79  A    between atoms: _225  and  _226
REMARK   80  A    between atoms: _232  and  _234
REMARK   81  A    between atoms: _234  and  _235
REMARK   82  A    between atoms: _237  and  _239
REMARK   83  A    between atoms: _239  and  _240
REMARK   84  A    between atoms: _239  and  _242
REMARK   85  A    between atoms: _242  and  _243
REMARK   86  A    between atoms: _243  and  _244
REMARK   87  A    between atoms: _244  and  _245
REMARK   88  A    between atoms: _245  and  _246
REMARK   89  A    between atoms: _250  and  _252
REMARK   90  A    between atoms: _252  and  _253
REMARK   91  A    between atoms: _252  and  _255
REMARK   92  A    between atoms: _258  and  _260
REMARK   93  A    between atoms: _260  and  _261
REMARK   94  A    between atoms: _260  and  _263
REMARK   95  A    between atoms: _263  and  _264
REMARK   96  A    between atoms: _264  and  _265
REMARK   97  A    between atoms: _270  and  _272
REMARK   98  A    between atoms: _272  and  _273
REMARK   99  A    between atoms: _272  and  _275
REMARK  100  A    between atoms: _275  and  _276
REMARK  101  A    between atoms: _279  and  _281
REMARK  102  A    between atoms: _281  and  _282
REMARK  103  A    between atoms: _285  and  _287
REMARK  104  A    between atoms: _287  and  _288
REMARK  105  A    between atoms: _287  and  _290
REMARK  106  A    between atoms: _293  and  _295
REMARK  107  A    between atoms: _295  and  _296
REMARK  108  A    between atoms: _295  and  _298
REMARK  109  A    between atoms: _298  and  _299
REMARK  110  A    between atoms: _302  and  _304
REMARK  111  A    between atoms: _304  and  _305
REMARK  112  A    between atoms: _304  and  _307
REMARK  113  A    between atoms: _307  and  _308
REMARK  114  A    between atoms: _310  and  _312
REMARK  115  A    between atoms: _312  and  _313
REMARK  116  A    between atoms: _312  and  _315
REMARK  117  A    between atoms: _315  and  _316
REMARK  118  A    between atoms: _319  and  _321
REMARK  119  A    between atoms: _321  and  _322
REMARK  120  A    between atoms: _321  and  _324
REMARK  121  A    between atoms: _324  and  _325
REMARK  122  A    between atoms: _328  and  _330
REMARK  123  A    between atoms: _330  and  _331
REMARK  124  A    between atoms: _330  and  _333
REMARK  125  A    between atoms: _333  and  _334
REMARK  126  A    between atoms: _338  and  _339
REMARK  127  A    between atoms: _345  and  _346
REMARK  128  A    between atoms: _351  and  _353
REMARK  129  A    between atoms: _353  and  _354
REMARK  130  A    between atoms: _353  and  _356
REMARK  131  A    between atoms: _356  and  _357
REMARK  132  A    between atoms: _360  and  _362
REMARK  133  A    between atoms: _362  and  _363
REMARK  134  A    between atoms: _362  and  _365
REMARK  135  A    between atoms: _365  and  _366
REMARK  136  A    between atoms: _369  and  _371
REMARK  137  A    between atoms: _371  and  _372
REMARK  138  A    between atoms: _371  and  _374
REMARK  139  A    between atoms: _376  and  _378
REMARK  140  A    between atoms: _378  and  _379
REMARK  141  A    between atoms: _378  and  _381
REMARK  142  A    between atoms: _384  and  _386
REMARK  143  A    between atoms: _386  and  _387
REMARK  144  A    between atoms: _386  and  _389
REMARK  145  A    between atoms: _389  and  _390
REMARK  146  A    between atoms: _400  and  _402
REMARK  147  A    between atoms: _402  and  _403
REMARK  148  A    between atoms: _402  and  _405
REMARK  149  A    between atoms: _405  and  _406
REMARK  150  A    between atoms: _411  and  _413
REMARK  151  A    between atoms: _413  and  _414
REMARK  152  A    between atoms: _413  and  _416
REMARK  153  A    between atoms: _416  and  _417
REMARK  154  A    between atoms: _417  and  _418
REMARK  155  A    between atoms: _418  and  _419
REMARK                            x       y       z     vdW  Elec       q    Type
REMARK                         _______ _______ _______ _____ _____    ______ ____
ROOT
ATOM      1  CB  ASN A   1      -8.574   2.164   7.171  0.00  0.00    +0.110 C 
ENDROOT
BRANCH   1   2
ATOM      2  CG  ASN A   1      -7.371   1.631   7.910  0.00  0.00    +0.221 C 
ATOM      3  OD1 ASN A   1      -7.281   1.742   9.115  0.00  0.00    -0.275 OA
ATOM      4  ND2 ASN A   1      -6.434   1.050   7.178  0.00  0.00    -0.329 N 
ATOM      5 HD21 ASN A   1      -5.581   0.668   7.633  0.00  0.00    +0.145 HD
ATOM      6 HD22 ASN A   1      -6.551   0.976   6.147  0.00  0.00    +0.145 HD
ENDBRANCH   1   2
BRANCH   1   7
ATOM      7  CA  ASN A   1      -9.457   1.051   6.600  0.00  0.00    +0.142 C 
BRANCH   7   8
ATOM      8  N   ASN A   1      -8.654   0.181   5.774  0.00  0.00    -0.239 NA
ATOM      9  H   ASN A   1      -8.221   0.552   4.904  0.00  0.00    +0.142 HD
ENDBRANCH   7   8
BRANCH   7  10
ATOM     10  C   ASN A   1     -10.583   1.687   5.815  0.00  0.00    +0.225 C 
ATOM     11  O   ASN A   1     -10.419   2.030   4.639  0.00  0.00    -0.287 OA
ENDBRANCH   7  10
ENDBRANCH   1   7
TORSDOF 4
REMARK  Name = ../refined-set-2016/1bn1/1bn1_pocket.pdb
REMARK  155 active torsions:
REMARK  status: ('A' for Active; 'I' for Inactive)
REMARK    1  A    between atoms: _1  and  _3
REMARK    2  A    between atoms: _3  and  _4
REMARK    3  A    between atoms: _3  and  _6
REMARK    4  A    between atoms: _6  and  _7
REMARK    5  A    between atoms: _17  and  _19
REMARK    6  A    between atoms: _19  and  _20
REMARK    7  A    between atoms: _19  and  _22
REMARK    8  A    between atoms: _22  and  _23
REMARK    9  A    between atoms: _28  and  _29
REMARK   10  A    between atoms: _31  and  _33
REMARK   11  A    between atoms: _33  and  _34
REMARK   12  A    between atoms: _33  and  _36
REMARK   13  A    between atoms: _36  and  _37
REMARK   14  A    between atoms: _40  and  _41
REMARK   15  A    between atoms: _46  and  _48
REMARK   16  A    between atoms: _48  and  _49
REMARK   17  A    between atoms: _48  and  _51
REMARK   18  A    between atoms: _51  and  _52
REMARK   19  A    between atoms: _57  and  _59
REMARK   20  A    between atoms: _59  and  _60
REMARK   21  A    between atoms: _63  and  _65
REMARK   22  A    between atoms: _65  and  _66
REMARK   23  A    between atoms: _65  and  _68
REMARK   24  A    between atoms: _68  and  _69
REMARK   25  A    between atoms: _74  and  _76
REMARK   26  A    between atoms: _76  and  _77
REMARK   27  A    between atoms: _76  and  _79
REMARK   28  A    between atoms: _79  and  _80
REMARK   29  A    between atoms: _83  and  _85
REMARK   30  A    between atoms: _85  and  _86
REMARK   31  A    between atoms: _85  and  _88
REMARK   32  A    between atoms: _88  and  _89
REMARK   33  A    between atoms: _89  and  _90
REMARK   34  A    between atoms: _95  and  _97
REMARK   35  A    between atoms: _97  and  _98
REMARK   36  A    between atoms: _97  and  _100
REMARK   37  A    between atoms: _100  and  _101
REMARK   38  A    between atoms: _107  and  _109
REMARK   39  A    between atoms: _120  and  _123
REMARK   40  A    between atoms: _123  and  _124
REMARK   41  A    between atoms: _132  and  _133
REMARK   42  A    between atoms: _141  and  _143
REMARK   43  A    between atoms: _143  and  _144
REMARK   44  A    between atoms: _143  and  _146
REMARK   45  A    between atoms: _146  and  _147
REMARK   46  A    between atoms: _147  and  _148
REMARK   47  A    between atoms: _151  and  _153
REMARK   48  A    between atoms: _153  and  _154
REMARK   49  A    between atoms: _153  and  _156
REMARK   50  A    between atoms: _156  and  _157
REMARK   51  A    between atoms: _162  and  _164
REMARK   52  A    between atoms: _164  and  _165
REMARK   53  A    between atoms: _164  and  _167
REMARK   54  A    between atoms: _167  and  _168
REMARK   55  A    between atoms: _168  and  _169
REMARK   56  A    between atoms: _172  and  _174
REMARK   57  A    between atoms: _174  and  _175
REMARK   58  A    between atoms: _174  and  _177
REMARK   59  A    between atoms: _177  and  _178
REMARK   60  A    between atoms: _181  and  _183
REMARK   61  A    between atoms: _183  and  _184
REMARK   62  A    between atoms: _183  and  _186
REMARK   63  A    between atoms: _186  and  _187
REMARK   64  A    between atoms: _188  and  ZN_428
REMARK   65  A    between atoms: _192  and  _194
REMARK   66  A    between atoms: _194  and  _195
REMARK   67  A    between atoms: _194  and  _197
REMARK   68  A    between atoms: _197  and  _198
REMARK   69  A    between atoms: _201  and  _203
REMARK   70  A    between atoms: _203  and  _204
REMARK   71  A    between atoms: _203  and  _206
REMARK   72  A    between atoms: _209  and  _211
REMARK   73  A    between atoms: _211  and  _212
REMARK   74  A    between atoms: _211  and  _214
REMARK   75  A    between atoms: _214  and  _215
REMARK   76  A    between atoms: _220  and  _222
REMARK   77  A    between atoms: _222  and  _223
REMARK   78  A    between atoms: _222  and  _225
REMARK   79  A    between atoms: _225  and  _226
REMARK   80  A    between atoms: _232  and  _234
REMARK   81  A    between atoms: _234  and  _235
REMARK   82  A    between atoms: _237  and  _239
REMARK   83  A    between atoms: _239  and  _240
REMARK   84  A    between atoms: _239  and  _242
REMARK   85  A    between atoms: _242  and  _243
REMARK   86  A    between atoms: _243  and  _244
REMARK   87  A    between atoms: _244  and  _245
REMARK   88  A    between atoms: _245  and  _246
REMARK   89  A    between atoms: _250  and  _252
REMARK   90  A    between atoms: _252  and  _253
REMARK   91  A    between atoms: _252  and  _255
REMARK   92  A    between atoms: _258  and  _260
REMARK   93  A    between atoms: _260  and  _261
REMARK   94  A    between atoms: _260  and  _263
REMARK   95  A    between atoms: _263  and  _264
REMARK   96  A    between atoms: _264  and  _265
REMARK   97  A    between atoms: _270  and  _272
REMARK   98  A    between atoms: _272  and  _273
REMARK   99  A    between atoms: _272  and  _275
REMARK  100  A    between atoms: _275  and  _276
REMARK  101  A    between atoms: _279  and  _281
REMARK  102  A    between atoms: _281  and  _282
REMARK  103  A    between atoms: _285  and  _287
REMARK  104  A    between atoms: _287  and  _288
REMARK  105  A    between atoms: _287  and  _290
REMARK  106  A    between atoms: _293  and  _295
REMARK  107  A    between atoms: _295  and  _296
REMARK  108  A    between atoms: _295  and  _298
REMARK  109  A    between atoms: _298  and  _299
REMARK  110  A    between atoms: _302  and  _304
REMARK  111  A    between atoms: _304  and  _305
REMARK  112  A    between atoms: _304  and  _307
REMARK  113  A    between atoms: _307  and  _308
REMARK  114  A    between atoms: _310  and  _312
REMARK  115  A    between atoms: _312  and  _313
REMARK  116  A    between atoms: _312  and  _315
REMARK  117  A    between atoms: _315  and  _316
REMARK  118  A    between atoms: _319  and  _321
REMARK  119  A    between atoms: _321  and  _322
REMARK  120  A    between atoms: _321  and  _324
REMARK  121  A    between atoms: _324  and  _325
REMARK  122  A    between atoms: _328  and  _330
REMARK  123  A    between atoms: _330  and  _331
REMARK  124  A    between atoms: _330  and  _333
REMARK  125  A    between atoms: _333  and  _334
REMARK  126  A    between atoms: _338  and  _339
REMARK  127  A    between atoms: _345  and  _346
REMARK  128  A    between atoms: _351  and  _353
REMARK  129  A    between atoms: _353  and  _354
REMARK  130  A    between atoms: _353  and  _356
REMARK  131  A    between atoms: _356  and  _357
REMARK  132  A    between atoms: _360  and  _362
REMARK  133  A    between atoms: _362  and  _363
REMARK  134  A    between atoms: _362  and  _365
REMARK  135  A    between atoms: _365  and  _366
REMARK  136  A    between atoms: _369  and  _371
REMARK  137  A    between atoms: _371  and  _372
REMARK  138  A    between atoms: _371  and  _374
REMARK  139  A    between atoms: _376  and  _378
REMARK  140  A    between atoms: _378  and  _379
REMARK  141  A    between atoms: _378  and  _381
REMARK  142  A    between atoms: _384  and  _386
REMARK  143  A    between atoms: _386  and  _387
REMARK  144  A    between atoms: _386  and  _389
REMARK  145  A    between atoms: _389  and  _390
REMARK  146  A    between atoms: _400  and  _402
REMARK  147  A    between atoms: _402  and  _403
REMARK  148  A    between atoms: _402  and  _405
REMARK  149  A    between atoms: _405  and  _406
REMARK  150  A    between atoms: _411  and  _413
REMARK  151  A    between atoms: _413  and  _414
REMARK  152  A    between atoms: _413  and  _416
REMARK  153  A    between atoms: _416  and  _417
REMARK  154  A    between atoms: _417  and  _418
REMARK  155  A    between atoms: _418  and  _419
REMARK                            x       y       z     vdW  Elec       q    Type
REMARK                         _______ _______ _______ _____ _____    ______ ____
ROOT
ATOM      1  C   UNK A   4     -10.321  -1.366  10.438  0.00  0.00    +0.000 C 
ATOM      2  C   UNK A   4     -10.441  -2.670  11.188  0.00  0.00    +0.000 C 
ATOM      3  O   UNK A   4     -11.147  -2.765  12.203  0.00  0.00    +0.000 OA
ATOM      4  N   VAL A   5      -9.731  -3.672  10.698  0.00  0.00    +0.000 N 
ATOM      5  CA  VAL A   5      -9.760  -4.986  11.302  0.00  0.00    +0.000 C 
ATOM      6  C   VAL A   5      -8.353  -5.474  11.496  0.00  0.00    +0.000 C 
ATOM      7  N   UNK A   6      -8.241  -6.470  12.356  0.00  0.00    +0.000 N 
ATOM      8  H   UNK A   6      -9.096  -6.776  12.863  0.00  0.00    +0.000 HD
ATOM      9  C   UNK A   6      -6.997  -7.162  12.635  0.00  0.00    +0.000 C 
ATOM     10  C   UNK A   6      -6.519  -6.895  14.057  0.00  0.00    +0.000 C 
ATOM     11  C   UNK A   6      -6.145  -5.450  14.277  0.00  0.00    +0.000 A 
ATOM     12  C   UNK A   6      -6.841  -4.303  14.659  0.00  0.00    +0.000 A 
ATOM     13  N   UNK A   6      -5.940  -3.270  14.688  0.00  0.00    +0.000 N 
ATOM     14 ZN   UNK A   6      -6.844  -1.668  15.437  0.00  0.00    +0.000 Zn
ATOM     15  N   UNK A   4      -7.571  -0.471  13.996  0.00  0.00    +0.000 N 
ATOM     16  C   UNK A   4      -8.111   0.729  13.670  0.00  0.00    +0.000 A 
ATOM     17  N   UNK A   4      -8.599   0.626  12.402  0.00  0.00    +0.000 NA
ATOM     18  C   UNK A   4      -8.390  -0.591  11.905  0.00  0.00    +0.000 A 
ATOM     19  C   UNK A   4      -7.724  -1.319  12.926  0.00  0.00    +0.000 A 
ATOM     20  C   UNK A   6      -4.728  -3.752  14.331  0.00  0.00    +0.000 A 
ATOM     21  N   UNK A   6      -4.880  -5.074  14.087  0.00  0.00    +0.000 NA
ATOM     22  O   VAL A   5      -7.413  -4.982  10.873  0.00  0.00    +0.000 OA
ATOM     23  H   VAL A   5      -9.138  -3.512   9.859  0.00  0.00    +0.000 HD
ATOM     24  C   UNK A   4      -8.865  -0.880  10.486  0.00  0.00    +0.000 C 
ENDROOT
BRANCH  14  25
ATOM     25  N   UNK A   6      -8.357  -2.316  16.615  0.00  0.00    +0.000 N 
ATOM     26  C   UNK A   6      -7.883  -3.227  17.509  0.00  0.00    +0.000 A 
ATOM     27  N   UNK A   6      -8.937  -3.688  18.212  0.00  0.00    +0.000 NA
ATOM     28  C   UNK A   6     -10.067  -3.067  17.757  0.00  0.00    +0.000 A 
ATOM     29  C   UNK A   6      -9.677  -2.186  16.736  0.00  0.00    +0.000 A 
BRANCH  29  30
ATOM     30  C   UNK A   6     -10.368  -1.133  15.906  0.00  0.00    +0.000 C 
BRANCH  30  31
ATOM     31  C   UNK A   6     -11.863  -1.387  15.762  0.00  0.00    +0.000 C 
BRANCH  31  32
ATOM     32  C   UNK A   6     -12.507  -0.182  15.099  0.00  0.00    +0.000 C 
ATOM     33  N   UNK A   4     -13.474   0.420  15.792  0.00  0.00    +0.000 N 
ATOM     34  H   UNK A   4     -13.759   0.022  16.710  0.00  0.00    +0.000 HD
ATOM     35  O   UNK A   6     -12.185   0.149  13.945  0.00  0.00    +0.000 OA
BRANCH  33  36
ATOM     36  C   UNK A   4     -14.147   1.623  15.302  0.00  0.00    +0.000 C 
BRANCH  36  37
ATOM     37  C   UNK A   4     -13.493   2.750  16.082  0.00  0.00    +0.000 C 
ATOM     38  O   UNK A   4     -13.666   2.858  17.304  0.00  0.00    +0.000 OA
ATOM     39  N   VAL A   5     -12.685   3.539  15.378  0.00  0.00    +0.000 N 
ATOM     40  H   VAL A   5     -12.592   3.371  14.356  0.00  0.00    +0.000 HD
BRANCH  39  41
ATOM     41  CA  VAL A   5     -11.923   4.631  15.978  0.00  0.00    +0.000 C 
BRANCH  41  42
ATOM     42  C   VAL A   5     -12.661   5.966  16.039  0.00  0.00    +0.000 C 
ATOM     43  N   UNK A   6     -12.742   6.517  17.254  0.00  0.00    +0.000 N 
ATOM     44  H   UNK A   6     -12.303   6.016  18.053  0.00  0.00    +0.000 HD
ATOM     45  O   VAL A   5     -13.151   6.469  15.017  0.00  0.00    +0.000 OA
BRANCH  43  46
ATOM     46  C   UNK A   6     -13.415   7.786  17.518  0.00  0.00    +0.000 C 
BRANCH  46  47
ATOM     47  C   UNK A   6     -12.473   8.744  18.230  0.00  0.00    +0.000 C 
ATOM     48  O   UNK A   6     -11.606   8.309  18.984  0.00  0.00    +0.000 OA
ENDBRANCH  46  47
BRANCH  46  49
ATOM     49  C   UNK A   6     -14.612   7.573  18.445  0.00  0.00    +0.000 C 
BRANCH  49  50
ATOM     50  C   UNK A   6     -15.550   6.500  17.994  0.00  0.00    +0.000 A 
ATOM     51  N   UNK A   6     -15.264   5.158  18.124  0.00  0.00    +0.000 NA
ATOM     52  C   UNK A   6     -16.272   4.448  17.648  0.00  0.00    +0.000 A 
ATOM     53  N   UNK A   6     -17.201   5.282  17.219  0.00  0.00    +0.000 NA
ATOM     54  C   UNK A   6     -16.774   6.572  17.422  0.00  0.00    +0.000 A 
ENDBRANCH  49  50
ENDBRANCH  46  49
ENDBRANCH  43  46
ENDBRANCH  41  42
BRANCH  41  55
ATOM     55  CB  VAL A   5     -10.544   4.782  15.260  0.00  0.00    +0.000 C 
ATOM     56  CG2 VAL A   5      -9.632   5.750  16.016  0.00  0.00    +0.000 C 
ATOM     57  CG1 VAL A   5      -9.883   3.421  15.145  0.00  0.00    +0.000 C 
ENDBRANCH  41  55
ENDBRANCH  39  41
ENDBRANCH  36  37
BRANCH  36  58
ATOM     58  C   UNK A   4     -15.651   1.554  15.553  0.00  0.00    +0.000 C 
BRANCH  58  59
ATOM     59  C   UNK A   4     -16.341   0.460  14.712  0.00  0.00    +0.000 C 
ATOM     60  C   UNK A   4     -17.248  -0.384  15.570  0.00  0.00    +0.000 C 
ATOM     61  C   UNK A   4     -17.126   1.071  13.565  0.00  0.00    +0.000 C 
ENDBRANCH  58  59
ENDBRANCH  36  58
ENDBRANCH  33  36
ENDBRANCH  31  32
BRANCH  31  62
ATOM     62  N   UNK A   6     -12.107  -2.572  14.960  0.00  0.00    +0.000 N 
ATOM     63  C   LEU A   2     -12.780  -3.612  15.432  0.00  0.00    +0.000 C 
ATOM     64  O   LEU A   2     -13.205  -3.670  16.589  0.00  0.00    +0.000 OA
ATOM     65  H   UNK A   6     -11.743  -2.606  13.986  0.00  0.00    +0.000 HD
BRANCH  63  66
ATOM     66  CA  LEU A   2     -13.000  -4.770  14.461  0.00  0.00    +0.000 C 
BRANCH  66  67
ATOM     67  N   LEU A   2     -12.637  -6.016  15.095  0.00  0.00    +0.000 N 
ATOM     68  H   LEU A   2     -13.352  -6.508  15.669  0.00  0.00    +0.000 HD
ATOM     69  C   GLU A   1     -11.438  -6.560  14.979  0.00  0.00    +0.000 C 
ATOM     70  O   GLU A   1     -10.540  -6.082  14.280  0.00  0.00    +0.000 OA
BRANCH  69  71
ATOM     71  CA  GLU A   1     -11.255  -7.873  15.730  0.00  0.00    +0.000 C 
BRANCH  71  72
ATOM     72  N   GLU A   1     -10.790  -8.900  14.829  0.00  0.00    +0.000 NA
ATOM     73  H   GLU A   1     -10.181  -8.634  14.029  0.00  0.00    +0.000 HD
ENDBRANCH  71  72
BRANCH  71  74
ATOM     74  CB  GLU A   1     -10.283  -7.693  16.889  0.00  0.00    +0.000 C 
BRANCH  74  75
ATOM     75  CG  GLU A   1     -10.832  -6.813  18.001  0.00  0.00    +0.000 C 
BRANCH  75  76
ATOM     76  CD  GLU A   1      -9.916  -6.766  19.212  0.00  0.00    +0.000 C 
ATOM     77  OE2 GLU A   1      -9.790  -5.689  19.828  0.00  0.00    +0.000 OA
ATOM     78  OE1 GLU A   1      -9.325  -7.812  19.551  0.00  0.00    +0.000 OA
ENDBRANCH  75  76
ENDBRANCH  74  75
ENDBRANCH  71  74
ENDBRANCH  69  71
ENDBRANCH  66  67
BRANCH  66  79
ATOM     79  CB  LEU A   2     -14.476  -4.835  14.066  0.00  0.00    +0.000 C 
BRANCH  79  80
ATOM     80  CG  LEU A   2     -15.208  -3.577  13.613  0.00  0.00    +0.000 C 
ATOM     81  CD2 LEU A   2     -16.655  -3.965  13.352  0.00  0.00    +0.000 C 
ATOM     82  CD1 LEU A   2     -14.578  -2.996  12.346  0.00  0.00    +0.000 C 
ENDBRANCH  79  80
ENDBRANCH  66  79
ENDBRANCH  63  66
ENDBRANCH  31  62
ENDBRANCH  30  31
ENDBRANCH  29  30
ENDBRANCH  14  25
BRANCH   1  84
ATOM     83  C   UNK A   3     -11.825   0.554  10.442  0.00  0.00    +0.000 C 
ATOM     84  N   UNK A   4     -11.211  -0.422  11.094  0.00  0.00    +0.000 N 
ATOM     85  H   UNK A   4     -11.372  -0.517  12.117  0.00  0.00    +0.000 HD
ATOM     86  O   UNK A   3     -11.636   0.797   9.242  0.00  0.00    +0.000 OA
BRANCH  83  87
ATOM     87  C   UNK A   3     -12.721   1.445  11.281  0.00  0.00    +0.000 C 
BRANCH  87  90
ATOM     88  C   LEU A   2     -12.549   3.849  11.378  0.00  0.00    +0.000 C 
ATOM     89  O   LEU A   2     -12.591   3.858  12.604  0.00  0.00    +0.000 OA
ATOM     90  N   UNK A   3     -12.699   2.752  10.652  0.00  0.00    +0.000 N 
ATOM     91  H   UNK A   3     -12.802   2.828   9.620  0.00  0.00    +0.000 HD
BRANCH  88  92
ATOM     92  CA  LEU A   2     -12.420   5.136  10.605  0.00  0.00    +0.000 C 
BRANCH  92  94
ATOM     93  C   GLU A   1     -12.880   7.498  10.866  0.00  0.00    +0.000 C 
ATOM     94  N   LEU A   2     -12.729   6.300  11.418  0.00  0.00    +0.000 N 
ATOM     95  H   LEU A   2     -12.833   6.193  12.447  0.00  0.00    +0.000 HD
ATOM     96  O   GLU A   1     -12.786   7.678   9.650  0.00  0.00    +0.000 OA
BRANCH  93  97
ATOM     97  CA  GLU A   1     -13.221   8.659  11.815  0.00  0.00    +0.000 C 
BRANCH  97  98
ATOM     98  CB  GLU A   1     -11.953   9.349  12.364  0.00  0.00    +0.000 C 
ATOM     99  CG2 GLU A   1     -11.170   8.416  13.296  0.00  0.00    +0.000 C 
BRANCH  98 100
ATOM    100  CG1 GLU A   1     -11.087   9.855  11.209  0.00  0.00    +0.000 C 
ATOM    101  CD1 GLU A   1      -9.840  10.604  11.670  0.00  0.00    +0.000 C 
ENDBRANCH  98 100
ENDBRANCH  97  98
BRANCH  97 102
ATOM    102  N   GLU A   1     -14.082   8.207  12.895  0.00  0.00    +0.000 NA
ATOM    103  H   GLU A   1     -13.720   7.529  13.595  0.00  0.00    +0.000 HD
ENDBRANCH  97 102
ENDBRANCH  93  97
ENDBRANCH  92  94
BRANCH  92 104
ATOM    104  CB  LEU A   2     -10.991   5.220  10.067  0.00  0.00    +0.000 C 
BRANCH 104 105
ATOM    105  CG  LEU A   2      -9.910   5.283  11.150  0.00  0.00    +0.000 C 
BRANCH 105 106
ATOM    106  CD  LEU A   2      -9.086   4.017  11.255  0.00  0.00    +0.000 C 
ATOM    107  NE2 LEU A   2      -7.779   4.170  11.314  0.00  0.00    +0.000 N 
ATOM    108 HE21 LEU A   2      -7.161   3.337  11.396  0.00  0.00    +0.000 HD
ATOM    109 HE22 LEU A   2      -7.365   5.123  11.278  0.00  0.00    +0.000 HD
ATOM    110  OE1 LEU A   2      -9.618   2.921  11.293  0.00  0.00    +0.000 OA
ENDBRANCH 105 106
ENDBRANCH 104 105
ENDBRANCH  92 104
ENDBRANCH  88  92
ENDBRANCH  87  90
BRANCH  87 111
ATOM    111  C   UNK A   3     -14.141   0.872  11.477  0.00  0.00    +0.000 C 
BRANCH 111 112
ATOM    112  C   UNK A   3     -14.831   0.407  10.217  0.00  0.00    +0.000 A 
ATOM    113  C   UNK A   3     -15.942   1.091   9.735  0.00  0.00    +0.000 A 
ATOM    114  C   UNK A   3     -16.666   0.608   8.635  0.00  0.00    +0.000 A 
ATOM    115  C   UNK A   3     -16.272  -0.571   8.004  0.00  0.00    +0.000 A 
ATOM    116  C   UNK A   3     -15.153  -1.261   8.476  0.00  0.00    +0.000 A 
ATOM    117  C   UNK A   3     -14.443  -0.771   9.573  0.00  0.00    +0.000 A 
ENDBRANCH 111 112
ENDBRANCH  87 111
ENDBRANCH  83  87
ENDBRANCH   1  84
BRANCH   9 118
ATOM    118  C   UNK A   6      -7.472  -8.606  12.490  0.00  0.00    +0.000 C 
ATOM    119  O   UNK A   6      -8.567  -8.952  12.958  0.00  0.00    +0.000 OA
ENDBRANCH   9 118
BRANCH   5 120
ATOM    120  CB  VAL A   5     -10.462  -5.998  10.374  0.00  0.00    +0.000 C 
BRANCH 120 121
ATOM    121  CG  VAL A   5     -11.911  -5.686  10.085  0.00  0.00    +0.000 A 
ATOM    122  CD2 VAL A   5     -12.928  -6.380  10.742  0.00  0.00    +0.000 A 
ATOM    123  CE2 VAL A   5     -14.272  -6.166  10.407  0.00  0.00    +0.000 A 
ATOM    124  CZ  VAL A   5     -14.599  -5.248   9.411  0.00  0.00    +0.000 A 
ATOM    125  CE1 VAL A   5     -13.590  -4.548   8.760  0.00  0.00    +0.000 A 
ATOM    126  CD1 VAL A   5     -12.256  -4.767   9.098  0.00  0.00    +0.000 A 
ENDBRANCH 120 121
ENDBRANCH   5 120
TORSDOF 42
REMARK  Name = ../refined-set-2016/1bn1/1bn1_pocket.pdb
REMARK  155 active torsions:
REMARK  status: ('A' for Active; 'I' for Inactive)
REMARK    1  A    between atoms: _1  and  _3
REMARK    2  A    between atoms: _3  and  _4
REMARK    3  A    between atoms: _3  and  _6
REMARK    4  A    between atoms: _6  and  _7
REMARK    5  A    between atoms: _17  and  _19
REMARK    6  A    between atoms: _19  and  _20
REMARK    7  A    between atoms: _19  and  _22
REMARK    8  A    between atoms: _22  and  _23
REMARK    9  A    between atoms: _28  and  _29
REMARK   10  A    between atoms: _31  and  _33
REMARK   11  A    between atoms: _33  and  _34
REMARK   12  A    between atoms: _33  and  _36
REMARK   13  A    between atoms: _36  and  _37
REMARK   14  A    between atoms: _40  and  _41
REMARK   15  A    between atoms: _46  and  _48
REMARK   16  A    between atoms: _48  and  _49
REMARK   17  A    between atoms: _48  and  _51
REMARK   18  A    between atoms: _51  and  _52
REMARK   19  A    between atoms: _57  and  _59
REMARK   20  A    between atoms: _59  and  _60
REMARK   21  A    between atoms: _63  and  _65
REMARK   22  A    between atoms: _65  and  _66
REMARK   23  A    between atoms: _65  and  _68
REMARK   24  A    between atoms: _68  and  _69
REMARK   25  A    between atoms: _74  and  _76
REMARK   26  A    between atoms: _76  and  _77
REMARK   27  A    between atoms: _76  and  _79
REMARK   28  A    between atoms: _79  and  _80
REMARK   29  A    between atoms: _83  and  _85
REMARK   30  A    between atoms: _85  and  _86
REMARK   31  A    between atoms: _85  and  _88
REMARK   32  A    between atoms: _88  and  _89
REMARK   33  A    between atoms: _89  and  _90
REMARK   34  A    between atoms: _95  and  _97
REMARK   35  A    between atoms: _97  and  _98
REMARK   36  A    between atoms: _97  and  _100
REMARK   37  A    between atoms: _100  and  _101
REMARK   38  A    between atoms: _107  and  _109
REMARK   39  A    between atoms: _120  and  _123
REMARK   40  A    between atoms: _123  and  _124
REMARK   41  A    between atoms: _132  and  _133
REMARK   42  A    between atoms: _141  and  _143
REMARK   43  A    between atoms: _143  and  _144
REMARK   44  A    between atoms: _143  and  _146
REMARK   45  A    between atoms: _146  and  _147
REMARK   46  A    between atoms: _147  and  _148
REMARK   47  A    between atoms: _151  and  _153
REMARK   48  A    between atoms: _153  and  _154
REMARK   49  A    between atoms: _153  and  _156
REMARK   50  A    between atoms: _156  and  _157
REMARK   51  A    between atoms: _162  and  _164
REMARK   52  A    between atoms: _164  and  _165
REMARK   53  A    between atoms: _164  and  _167
REMARK   54  A    between atoms: _167  and  _168
REMARK   55  A    between atoms: _168  and  _169
REMARK   56  A    between atoms: _172  and  _174
REMARK   57  A    between atoms: _174  and  _175
REMARK   58  A    between atoms: _174  and  _177
REMARK   59  A    between atoms: _177  and  _178
REMARK   60  A    between atoms: _181  and  _183
REMARK   61  A    between atoms: _183  and  _184
REMARK   62  A    between atoms: _183  and  _186
REMARK   63  A    between atoms: _186  and  _187
REMARK   64  A    between atoms: _188  and  ZN_428
REMARK   65  A    between atoms: _192  and  _194
REMARK   66  A    between atoms: _194  and  _195
REMARK   67  A    between atoms: _194  and  _197
REMARK   68  A    between atoms: _197  and  _198
REMARK   69  A    between atoms: _201  and  _203
REMARK   70  A    between atoms: _203  and  _204
REMARK   71  A    between atoms: _203  and  _206
REMARK   72  A    between atoms: _209  and  _211
REMARK   73  A    between atoms: _211  and  _212
REMARK   74  A    between atoms: _211  and  _214
REMARK   75  A    between atoms: _214  and  _215
REMARK   76  A    between atoms: _220  and  _222
REMARK   77  A    between atoms: _222  and  _223
REMARK   78  A    between atoms: _222  and  _225
REMARK   79  A    between atoms: _225  and  _226
REMARK   80  A    between atoms: _232  and  _234
REMARK   81  A    between atoms: _234  and  _235
REMARK   82  A    between atoms: _237  and  _239
REMARK   83  A    between atoms: _239  and  _240
REMARK   84  A    between atoms: _239  and  _242
REMARK   85  A    between atoms: _242  and  _243
REMARK   86  A    between atoms: _243  and  _244
REMARK   87  A    between atoms: _244  and  _245
REMARK   88  A    between atoms: _245  and  _246
REMARK   89  A    between atoms: _250  and  _252
REMARK   90  A    between atoms: _252  and  _253
REMARK   91  A    between atoms: _252  and  _255
REMARK   92  A    between atoms: _258  and  _260
REMARK   93  A    between atoms: _260  and  _261
REMARK   94  A    between atoms: _260  and  _263
REMARK   95  A    between atoms: _263  and  _264
REMARK   96  A    between atoms: _264  and  _265
REMARK   97  A    between atoms: _270  and  _272
REMARK   98  A    between atoms: _272  and  _273
REMARK   99  A    between atoms: _272  and  _275
REMARK  100  A    between atoms: _275  and  _276
REMARK  101  A    between atoms: _279  and  _281
REMARK  102  A    between atoms: _281  and  _282
REMARK  103  A    between atoms: _285  and  _287
REMARK  104  A    between atoms: _287  and  _288
REMARK  105  A    between atoms: _287  and  _290
REMARK  106  A    between atoms: _293  and  _295
REMARK  107  A    between atoms: _295  and  _296
REMARK  108  A    between atoms: _295  and  _298
REMARK  109  A    between atoms: _298  and  _299
REMARK  110  A    between atoms: _302  and  _304
REMARK  111  A    between atoms: _304  and  _305
REMARK  112  A    between atoms: _304  and  _307
REMARK  113  A    between atoms: _307  and  _308
REMARK  114  A    between atoms: _310  and  _312
REMARK  115  A    between atoms: _312  and  _313
REMARK  116  A    between atoms: _312  and  _315
REMARK  117  A    between atoms: _315  and  _316
REMARK  118  A    between atoms: _319  and  _321
REMARK  119  A    between atoms: _321  and  _322
REMARK  120  A    between atoms: _321  and  _324
REMARK  121  A    between atoms: _324  and  _325
REMARK  122  A    between atoms: _328  and  _330
REMARK  123  A    between atoms: _330  and  _331
REMARK  124  A    between atoms: _330  and  _333
REMARK  125  A    between atoms: _333  and  _334
REMARK  126  A    between atoms: _338  and  _339
REMARK  127  A    between atoms: _345  and  _346
REMARK  128  A    between atoms: _351  and  _353
REMARK  129  A    between atoms: _353  and  _354
REMARK  130  A    between atoms: _353  and  _356
REMARK  131  A    between atoms: _356  and  _357
REMARK  132  A    between atoms: _360  and  _362
REMARK  133  A    between atoms: _362  and  _363
REMARK  134  A    between atoms: _362  and  _365
REMARK  135  A    between atoms: _365  and  _366
REMARK  136  A    between atoms: _369  and  _371
REMARK  137  A    between atoms: _371  and  _372
REMARK  138  A    between atoms: _371  and  _374
REMARK  139  A    between atoms: _376  and  _378
REMARK  140  A    between atoms: _378  and  _379
REMARK  141  A    between atoms: _378  and  _381
REMARK  142  A    between atoms: _384  and  _386
REMARK  143  A    between atoms: _386  and  _387
REMARK  144  A    between atoms: _386  and  _389
REMARK  145  A    between atoms: _389  and  _390
REMARK  146  A    between atoms: _400  and  _402
REMARK  147  A    between atoms: _402  and  _403
REMARK  148  A    between atoms: _402  and  _405
REMARK  149  A    between atoms: _405  and  _406
REMARK  150  A    between atoms: _411  and  _413
REMARK  151  A    between atoms: _413  and  _414
REMARK  152  A    between atoms: _413  and  _416
REMARK  153  A    between atoms: _416  and  _417
REMARK  154  A    between atoms: _417  and  _418
REMARK  155  A    between atoms: _418  and  _419
REMARK                            x       y       z     vdW  Elec       q    Type
REMARK                         _______ _______ _______ _____ _____    ______ ____
ROOT
ATOM      1  C   GLU A   1      -6.107  -8.632  21.149  0.00  0.00    +0.238 C 
ATOM      2  O   GLU A   1      -5.261  -9.076  21.925  0.00  0.00    -0.274 OA
ATOM      3  N   HIS A   2      -7.319  -8.251  21.542  0.00  0.00    -0.298 N 
ATOM      4  H   HIS A   2      -7.956  -7.791  20.861  0.00  0.00    +0.150 HD
ENDROOT
BRANCH   1   5
ATOM      5  CA  GLU A   1      -5.785  -8.420  19.676  0.00  0.00    +0.145 C 
BRANCH   5   6
ATOM      6  N   GLU A   1      -6.887  -8.945  18.899  0.00  0.00    -0.238 NA
ATOM      7  H   GLU A   1      -7.709  -8.340  18.698  0.00  0.00    +0.142 HD
ENDBRANCH   5   6
BRANCH   5   8
ATOM      8  CB  GLU A   1      -5.584  -6.949  19.346  0.00  0.00    +0.038 C 
BRANCH   8   9
ATOM      9  CG  GLU A   1      -5.454  -6.690  17.859  0.00  0.00    +0.116 C 
BRANCH   9  10
ATOM     10  CD  GLU A   1      -4.686  -5.433  17.572  0.00  0.00    +0.365 C 
ATOM     11  OE2 GLU A   1      -5.214  -4.331  17.838  0.00  0.00    -0.246 OA
ATOM     12  OE1 GLU A   1      -3.545  -5.552  17.084  0.00  0.00    -0.246 OA
ENDBRANCH   9  10
ENDBRANCH   8   9
ENDBRANCH   5   8
ENDBRANCH   1   5
BRANCH   3  13
ATOM     13  CA  HIS A   2      -7.767  -8.467  22.905  0.00  0.00    +0.143 C 
BRANCH  13  14
ATOM     14  C   HIS A   2      -8.163  -9.929  22.950  0.00  0.00    +0.227 C 
ATOM     15  O   HIS A   2      -8.496 -10.517  21.919  0.00  0.00    -0.286 OA
ENDBRANCH  13  14
BRANCH  13  16
ATOM     16  CB  HIS A   2      -8.992  -7.614  23.222  0.00  0.00    +0.075 C 
BRANCH  16  17
ATOM     17  CG  HIS A   2      -8.673  -6.182  23.487  0.00  0.00    +0.082 A 
ATOM     18  CD2 HIS A   2      -8.300  -5.550  24.622  0.00  0.00    +0.115 A 
ATOM     19  NE2 HIS A   2      -8.058  -4.239  24.295  0.00  0.00    -0.221 NA
ATOM     20  CE1 HIS A   2      -8.279  -4.071  23.005  0.00  0.00    +0.199 A 
ATOM     21  ND1 HIS A   2      -8.657  -5.228  22.495  0.00  0.00    -0.227 NA
ENDBRANCH  16  17
ENDBRANCH  13  16
ENDBRANCH   3  13
TORSDOF 9
REMARK  Name = ../refined-set-2016/1bn1/1bn1_pocket.pdb
REMARK  155 active torsions:
REMARK  status: ('A' for Active; 'I' for Inactive)
REMARK    1  A    between atoms: _1  and  _3
REMARK    2  A    between atoms: _3  and  _4
REMARK    3  A    between atoms: _3  and  _6
REMARK    4  A    between atoms: _6  and  _7
REMARK    5  A    between atoms: _17  and  _19
REMARK    6  A    between atoms: _19  and  _20
REMARK    7  A    between atoms: _19  and  _22
REMARK    8  A    between atoms: _22  and  _23
REMARK    9  A    between atoms: _28  and  _29
REMARK   10  A    between atoms: _31  and  _33
REMARK   11  A    between atoms: _33  and  _34
REMARK   12  A    between atoms: _33  and  _36
REMARK   13  A    between atoms: _36  and  _37
REMARK   14  A    between atoms: _40  and  _41
REMARK   15  A    between atoms: _46  and  _48
REMARK   16  A    between atoms: _48  and  _49
REMARK   17  A    between atoms: _48  and  _51
REMARK   18  A    between atoms: _51  and  _52
REMARK   19  A    between atoms: _57  and  _59
REMARK   20  A    between atoms: _59  and  _60
REMARK   21  A    between atoms: _63  and  _65
REMARK   22  A    between atoms: _65  and  _66
REMARK   23  A    between atoms: _65  and  _68
REMARK   24  A    between atoms: _68  and  _69
REMARK   25  A    between atoms: _74  and  _76
REMARK   26  A    between atoms: _76  and  _77
REMARK   27  A    between atoms: _76  and  _79
REMARK   28  A    between atoms: _79  and  _80
REMARK   29  A    between atoms: _83  and  _85
REMARK   30  A    between atoms: _85  and  _86
REMARK   31  A    between atoms: _85  and  _88
REMARK   32  A    between atoms: _88  and  _89
REMARK   33  A    between atoms: _89  and  _90
REMARK   34  A    between atoms: _95  and  _97
REMARK   35  A    between atoms: _97  and  _98
REMARK   36  A    between atoms: _97  and  _100
REMARK   37  A    between atoms: _100  and  _101
REMARK   38  A    between atoms: _107  and  _109
REMARK   39  A    between atoms: _120  and  _123
REMARK   40  A    between atoms: _123  and  _124
REMARK   41  A    between atoms: _132  and  _133
REMARK   42  A    between atoms: _141  and  _143
REMARK   43  A    between atoms: _143  and  _144
REMARK   44  A    between atoms: _143  and  _146
REMARK   45  A    between atoms: _146  and  _147
REMARK   46  A    between atoms: _147  and  _148
REMARK   47  A    between atoms: _151  and  _153
REMARK   48  A    between atoms: _153  and  _154
REMARK   49  A    between atoms: _153  and  _156
REMARK   50  A    between atoms: _156  and  _157
REMARK   51  A    between atoms: _162  and  _164
REMARK   52  A    between atoms: _164  and  _165
REMARK   53  A    between atoms: _164  and  _167
REMARK   54  A    between atoms: _167  and  _168
REMARK   55  A    between atoms: _168  and  _169
REMARK   56  A    between atoms: _172  and  _174
REMARK   57  A    between atoms: _174  and  _175
REMARK   58  A    between atoms: _174  and  _177
REMARK   59  A    between atoms: _177  and  _178
REMARK   60  A    between atoms: _181  and  _183
REMARK   61  A    between atoms: _183  and  _184
REMARK   62  A    between atoms: _183  and  _186
REMARK   63  A    between atoms: _186  and  _187
REMARK   64  A    between atoms: _188  and  ZN_428
REMARK   65  A    between atoms: _192  and  _194
REMARK   66  A    between atoms: _194  and  _195
REMARK   67  A    between atoms: _194  and  _197
REMARK   68  A    between atoms: _197  and  _198
REMARK   69  A    between atoms: _201  and  _203
REMARK   70  A    between atoms: _203  and  _204
REMARK   71  A    between atoms: _203  and  _206
REMARK   72  A    between atoms: _209  and  _211
REMARK   73  A    between atoms: _211  and  _212
REMARK   74  A    between atoms: _211  and  _214
REMARK   75  A    between atoms: _214  and  _215
REMARK   76  A    between atoms: _220  and  _222
REMARK   77  A    between atoms: _222  and  _223
REMARK   78  A    between atoms: _222  and  _225
REMARK   79  A    between atoms: _225  and  _226
REMARK   80  A    between atoms: _232  and  _234
REMARK   81  A    between atoms: _234  and  _235
REMARK   82  A    between atoms: _237  and  _239
REMARK   83  A    between atoms: _239  and  _240
REMARK   84  A    between atoms: _239  and  _242
REMARK   85  A    between atoms: _242  and  _243
REMARK   86  A    between atoms: _243  and  _244
REMARK   87  A    between atoms: _244  and  _245
REMARK   88  A    between atoms: _245  and  _246
REMARK   89  A    between atoms: _250  and  _252
REMARK   90  A    between atoms: _252  and  _253
REMARK   91  A    between atoms: _252  and  _255
REMARK   92  A    between atoms: _258  and  _260
REMARK   93  A    between atoms: _260  and  _261
REMARK   94  A    between atoms: _260  and  _263
REMARK   95  A    between atoms: _263  and  _264
REMARK   96  A    between atoms: _264  and  _265
REMARK   97  A    between atoms: _270  and  _272
REMARK   98  A    between atoms: _272  and  _273
REMARK   99  A    between atoms: _272  and  _275
REMARK  100  A    between atoms: _275  and  _276
REMARK  101  A    between atoms: _279  and  _281
REMARK  102  A    between atoms: _281  and  _282
REMARK  103  A    between atoms: _285  and  _287
REMARK  104  A    between atoms: _287  and  _288
REMARK  105  A    between atoms: _287  and  _290
REMARK  106  A    between atoms: _293  and  _295
REMARK  107  A    between atoms: _295  and  _296
REMARK  108  A    between atoms: _295  and  _298
REMARK  109  A    between atoms: _298  and  _299
REMARK  110  A    between atoms: _302  and  _304
REMARK  111  A    between atoms: _304  and  _305
REMARK  112  A    between atoms: _304  and  _307
REMARK  113  A    between atoms: _307  and  _308
REMARK  114  A    between atoms: _310  and  _312
REMARK  115  A    between atoms: _312  and  _313
REMARK  116  A    between atoms: _312  and  _315
REMARK  117  A    between atoms: _315  and  _316
REMARK  118  A    between atoms: _319  and  _321
REMARK  119  A    between atoms: _321  and  _322
REMARK  120  A    between atoms: _321  and  _324
REMARK  121  A    between atoms: _324  and  _325
REMARK  122  A    between atoms: _328  and  _330
REMARK  123  A    between atoms: _330  and  _331
REMARK  124  A    between atoms: _330  and  _333
REMARK  125  A    between atoms: _333  and  _334
REMARK  126  A    between atoms: _338  and  _339
REMARK  127  A    between atoms: _345  and  _346
REMARK  128  A    between atoms: _351  and  _353
REMARK  129  A    between atoms: _353  and  _354
REMARK  130  A    between atoms: _353  and  _356
REMARK  131  A    between atoms: _356  and  _357
REMARK  132  A    between atoms: _360  and  _362
REMARK  133  A    between atoms: _362  and  _363
REMARK  134  A    between atoms: _362  and  _365
REMARK  135  A    between atoms: _365  and  _366
REMARK  136  A    between atoms: _369  and  _371
REMARK  137  A    between atoms: _371  and  _372
REMARK  138  A    between atoms: _371  and  _374
REMARK  139  A    between atoms: _376  and  _378
REMARK  140  A    between atoms: _378  and  _379
REMARK  141  A    between atoms: _378  and  _381
REMARK  142  A    between atoms: _384  and  _386
REMARK  143  A    between atoms: _386  and  _387
REMARK  144  A    between atoms: _386  and  _389
REMARK  145  A    between atoms: _389  and  _390
REMARK  146  A    between atoms: _400  and  _402
REMARK  147  A    between atoms: _402  and  _403
REMARK  148  A    between atoms: _402  and  _405
REMARK  149  A    between atoms: _405  and  _406
REMARK  150  A    between atoms: _411  and  _413
REMARK  151  A    between atoms: _413  and  _414
REMARK  152  A    between atoms: _413  and  _416
REMARK  153  A    between atoms: _416  and  _417
REMARK  154  A    between atoms: _417  and  _418
REMARK  155  A    between atoms: _418  and  _419
REMARK                            x       y       z     vdW  Elec       q    Type
REMARK                         _______ _______ _______ _____ _____    ______ ____
ROOT
ATOM      1  CA  GLY A   2      -4.286  15.379  15.634  0.00  0.00    +0.176 C 
ENDROOT
BRANCH   1   4
ATOM      2  C   PHE A   1      -6.424  14.257  15.921  0.00  0.00    +0.239 C 
ATOM      3  O   PHE A   1      -6.030  13.644  16.914  0.00  0.00    -0.274 OA
ATOM      4  N   GLY A   2      -5.665  15.116  15.245  0.00  0.00    -0.296 N 
ATOM      5  H   GLY A   2      -6.065  15.610  14.422  0.00  0.00    +0.150 HD
BRANCH   2   6
ATOM      6  CA  PHE A   1      -7.847  14.072  15.410  0.00  0.00    +0.149 C 
BRANCH   6   7
ATOM      7  N   PHE A   1      -8.476  15.330  15.037  0.00  0.00    -0.238 NA
ATOM      8  H   PHE A   1      -8.856  15.433  14.074  0.00  0.00    +0.142 HD
ENDBRANCH   6   7
BRANCH   6   9
ATOM      9  CB  PHE A   1      -7.865  13.100  14.229  0.00  0.00    +0.053 C 
BRANCH   9  10
ATOM     10  CG  PHE A   1      -7.302  11.749  14.552  0.00  0.00    -0.020 A 
ATOM     11  CD2 PHE A   1      -8.084  10.793  15.175  0.00  0.00    -0.004 A 
ATOM     12  CE2 PHE A   1      -7.560   9.547  15.511  0.00  0.00    -0.000 A 
ATOM     13  CZ  PHE A   1      -6.233   9.251  15.220  0.00  0.00    -0.000 A 
ATOM     14  CE1 PHE A   1      -5.434  10.201  14.592  0.00  0.00    -0.000 A 
ATOM     15  CD1 PHE A   1      -5.975  11.444  14.261  0.00  0.00    -0.004 A 
ENDBRANCH   9  10
ENDBRANCH   6   9
ENDBRANCH   2   6
ENDBRANCH   1   4
BRANCH   1  16
ATOM     16  C   GLY A   2      -4.126  15.914  17.044  0.00  0.00    +0.243 C 
ATOM     17  O   GLY A   2      -3.143  15.616  17.710  0.00  0.00    -0.273 OA
ATOM     18  N   LYS A   3      -5.065  16.735  17.499  0.00  0.00    -0.298 N 
ATOM     19  H   LYS A   3      -5.859  17.001  16.882  0.00  0.00    +0.150 HD
BRANCH  18  20
ATOM     20  CA  LYS A   3      -4.995  17.266  18.850  0.00  0.00    +0.137 C 
BRANCH  20  21
ATOM     21  C   LYS A   3      -5.427  16.175  19.837  0.00  0.00    +0.227 C 
ATOM     22  O   LYS A   3      -4.871  16.059  20.937  0.00  0.00    -0.286 OA
ENDBRANCH  20  21
BRANCH  20  23
ATOM     23  CB  LYS A   3      -5.905  18.479  18.994  0.00  0.00    +0.028 C 
BRANCH  23  24
ATOM     24  CG  LYS A   3      -5.606  19.604  18.023  0.00  0.00    -0.000 C 
BRANCH  24  25
ATOM     25  CD  LYS A   3      -4.184  20.140  18.185  0.00  0.00    -0.024 C 
BRANCH  25  26
ATOM     26  CE  LYS A   3      -3.857  21.152  17.089  0.00  0.00    -0.086 C 
BRANCH  26  27
ATOM     27  NZ  LYS A   3      -4.014  20.578  15.708  0.00  0.00    +0.380 N 
ATOM     28  HZ1 LYS A   3      -3.373  19.767  15.596  0.00  0.00    -0.089 HD
ATOM     29  HZ2 LYS A   3      -4.997  20.266  15.573  0.00  0.00    -0.089 HD
ATOM     30  HZ3 LYS A   3      -3.780  21.306  15.003  0.00  0.00    -0.089 HD
ENDBRANCH  26  27
ENDBRANCH  25  26
ENDBRANCH  24  25
ENDBRANCH  23  24
ENDBRANCH  20  23
ENDBRANCH  18  20
ENDBRANCH   1  16
TORSDOF 13
REMARK  Name = ../refined-set-2016/1bn1/1bn1_pocket.pdb
REMARK  155 active torsions:
REMARK  status: ('A' for Active; 'I' for Inactive)
REMARK    1  A    between atoms: _1  and  _3
REMARK    2  A    between atoms: _3  and  _4
REMARK    3  A    between atoms: _3  and  _6
REMARK    4  A    between atoms: _6  and  _7
REMARK    5  A    between atoms: _17  and  _19
REMARK    6  A    between atoms: _19  and  _20
REMARK    7  A    between atoms: _19  and  _22
REMARK    8  A    between atoms: _22  and  _23
REMARK    9  A    between atoms: _28  and  _29
REMARK   10  A    between atoms: _31  and  _33
REMARK   11  A    between atoms: _33  and  _34
REMARK   12  A    between atoms: _33  and  _36
REMARK   13  A    between atoms: _36  and  _37
REMARK   14  A    between atoms: _40  and  _41
REMARK   15  A    between atoms: _46  and  _48
REMARK   16  A    between atoms: _48  and  _49
REMARK   17  A    between atoms: _48  and  _51
REMARK   18  A    between atoms: _51  and  _52
REMARK   19  A    between atoms: _57  and  _59
REMARK   20  A    between atoms: _59  and  _60
REMARK   21  A    between atoms: _63  and  _65
REMARK   22  A    between atoms: _65  and  _66
REMARK   23  A    between atoms: _65  and  _68
REMARK   24  A    between atoms: _68  and  _69
REMARK   25  A    between atoms: _74  and  _76
REMARK   26  A    between atoms: _76  and  _77
REMARK   27  A    between atoms: _76  and  _79
REMARK   28  A    between atoms: _79  and  _80
REMARK   29  A    between atoms: _83  and  _85
REMARK   30  A    between atoms: _85  and  _86
REMARK   31  A    between atoms: _85  and  _88
REMARK   32  A    between atoms: _88  and  _89
REMARK   33  A    between atoms: _89  and  _90
REMARK   34  A    between atoms: _95  and  _97
REMARK   35  A    between atoms: _97  and  _98
REMARK   36  A    between atoms: _97  and  _100
REMARK   37  A    between atoms: _100  and  _101
REMARK   38  A    between atoms: _107  and  _109
REMARK   39  A    between atoms: _120  and  _123
REMARK   40  A    between atoms: _123  and  _124
REMARK   41  A    between atoms: _132  and  _133
REMARK   42  A    between atoms: _141  and  _143
REMARK   43  A    between atoms: _143  and  _144
REMARK   44  A    between atoms: _143  and  _146
REMARK   45  A    between atoms: _146  and  _147
REMARK   46  A    between atoms: _147  and  _148
REMARK   47  A    between atoms: _151  and  _153
REMARK   48  A    between atoms: _153  and  _154
REMARK   49  A    between atoms: _153  and  _156
REMARK   50  A    between atoms: _156  and  _157
REMARK   51  A    between atoms: _162  and  _164
REMARK   52  A    between atoms: _164  and  _165
REMARK   53  A    between atoms: _164  and  _167
REMARK   54  A    between atoms: _167  and  _168
REMARK   55  A    between atoms: _168  and  _169
REMARK   56  A    between atoms: _172  and  _174
REMARK   57  A    between atoms: _174  and  _175
REMARK   58  A    between atoms: _174  and  _177
REMARK   59  A    between atoms: _177  and  _178
REMARK   60  A    between atoms: _181  and  _183
REMARK   61  A    between atoms: _183  and  _184
REMARK   62  A    between atoms: _183  and  _186
REMARK   63  A    between atoms: _186  and  _187
REMARK   64  A    between atoms: _188  and  ZN_428
REMARK   65  A    between atoms: _192  and  _194
REMARK   66  A    between atoms: _194  and  _195
REMARK   67  A    between atoms: _194  and  _197
REMARK   68  A    between atoms: _197  and  _198
REMARK   69  A    between atoms: _201  and  _203
REMARK   70  A    between atoms: _203  and  _204
REMARK   71  A    between atoms: _203  and  _206
REMARK   72  A    between atoms: _209  and  _211
REMARK   73  A    between atoms: _211  and  _212
REMARK   74  A    between atoms: _211  and  _214
REMARK   75  A    between atoms: _214  and  _215
REMARK   76  A    between atoms: _220  and  _222
REMARK   77  A    between atoms: _222  and  _223
REMARK   78  A    between atoms: _222  and  _225
REMARK   79  A    between atoms: _225  and  _226
REMARK   80  A    between atoms: _232  and  _234
REMARK   81  A    between atoms: _234  and  _235
REMARK   82  A    between atoms: _237  and  _239
REMARK   83  A    between atoms: _239  and  _240
REMARK   84  A    between atoms: _239  and  _242
REMARK   85  A    between atoms: _242  and  _243
REMARK   86  A    between atoms: _243  and  _244
REMARK   87  A    between atoms: _244  and  _245
REMARK   88  A    between atoms: _245  and  _246
REMARK   89  A    between atoms: _250  and  _252
REMARK   90  A    between atoms: _252  and  _253
REMARK   91  A    between atoms: _252  and  _255
REMARK   92  A    between atoms: _258  and  _260
REMARK   93  A    between atoms: _260  and  _261
REMARK   94  A    between atoms: _260  and  _263
REMARK   95  A    between atoms: _263  and  _264
REMARK   96  A    between atoms: _264  and  _265
REMARK   97  A    between atoms: _270  and  _272
REMARK   98  A    between atoms: _272  and  _273
REMARK   99  A    between atoms: _272  and  _275
REMARK  100  A    between atoms: _275  and  _276
REMARK  101  A    between atoms: _279  and  _281
REMARK  102  A    between atoms: _281  and  _282
REMARK  103  A    between atoms: _285  and  _287
REMARK  104  A    between atoms: _287  and  _288
REMARK  105  A    between atoms: _287  and  _290
REMARK  106  A    between atoms: _293  and  _295
REMARK  107  A    between atoms: _295  and  _296
REMARK  108  A    between atoms: _295  and  _298
REMARK  109  A    between atoms: _298  and  _299
REMARK  110  A    between atoms: _302  and  _304
REMARK  111  A    between atoms: _304  and  _305
REMARK  112  A    between atoms: _304  and  _307
REMARK  113  A    between atoms: _307  and  _308
REMARK  114  A    between atoms: _310  and  _312
REMARK  115  A    between atoms: _312  and  _313
REMARK  116  A    between atoms: _312  and  _315
REMARK  117  A    between atoms: _315  and  _316
REMARK  118  A    between atoms: _319  and  _321
REMARK  119  A    between atoms: _321  and  _322
REMARK  120  A    between atoms: _321  and  _324
REMARK  121  A    between atoms: _324  and  _325
REMARK  122  A    between atoms: _328  and  _330
REMARK  123  A    between atoms: _330  and  _331
REMARK  124  A    between atoms: _330  and  _333
REMARK  125  A    between atoms: _333  and  _334
REMARK  126  A    between atoms: _338  and  _339
REMARK  127  A    between atoms: _345  and  _346
REMARK  128  A    between atoms: _351  and  _353
REMARK  129  A    between atoms: _353  and  _354
REMARK  130  A    between atoms: _353  and  _356
REMARK  131  A    between atoms: _356  and  _357
REMARK  132  A    between atoms: _360  and  _362
REMARK  133  A    between atoms: _362  and  _363
REMARK  134  A    between atoms: _362  and  _365
REMARK  135  A    between atoms: _365  and  _366
REMARK  136  A    between atoms: _369  and  _371
REMARK  137  A    between atoms: _371  and  _372
REMARK  138  A    between atoms: _371  and  _374
REMARK  139  A    between atoms: _376  and  _378
REMARK  140  A    between atoms: _378  and  _379
REMARK  141  A    between atoms: _378  and  _381
REMARK  142  A    between atoms: _384  and  _386
REMARK  143  A    between atoms: _386  and  _387
REMARK  144  A    between atoms: _386  and  _389
REMARK  145  A    between atoms: _389  and  _390
REMARK  146  A    between atoms: _400  and  _402
REMARK  147  A    between atoms: _402  and  _403
REMARK  148  A    between atoms: _402  and  _405
REMARK  149  A    between atoms: _405  and  _406
REMARK  150  A    between atoms: _411  and  _413
REMARK  151  A    between atoms: _413  and  _414
REMARK  152  A    between atoms: _413  and  _416
REMARK  153  A    between atoms: _416  and  _417
REMARK  154  A    between atoms: _417  and  _418
REMARK  155  A    between atoms: _418  and  _419
REMARK                            x       y       z     vdW  Elec       q    Type
REMARK                         _______ _______ _______ _____ _____    ______ ____
ROOT
ATOM      1  C   VAL A   1      -2.741  12.602  20.966  0.00  0.00    +0.238 C 
ATOM      2  N   GLN A   2      -2.990  13.772  21.540  0.00  0.00    -0.298 N 
ATOM      3  H   GLN A   2      -3.872  14.272  21.308  0.00  0.00    +0.150 HD
ATOM      4  O   VAL A   1      -1.700  11.981  21.155  0.00  0.00    -0.274 OA
ENDROOT
BRANCH   1   5
ATOM      5  CA  VAL A   1      -3.814  12.058  20.028  0.00  0.00    +0.145 C 
BRANCH   5   6
ATOM      6  CB  VAL A   1      -3.159  11.504  18.737  0.00  0.00    +0.025 C 
ATOM      7  CG2 VAL A   1      -4.164  10.670  17.969  0.00  0.00    +0.002 C 
ATOM      8  CG1 VAL A   1      -2.619  12.626  17.874  0.00  0.00    +0.002 C 
ENDBRANCH   5   6
BRANCH   5   9
ATOM      9  N   VAL A   1      -4.896  12.999  19.748  0.00  0.00    -0.238 NA
ATOM     10  H   VAL A   1      -4.945  13.460  18.817  0.00  0.00    +0.142 HD
ENDBRANCH   5   9
ENDBRANCH   1   5
BRANCH   2  11
ATOM     11  CA  GLN A   2      -2.062  14.376  22.487  0.00  0.00    +0.137 C 
BRANCH  11  12
ATOM     12  C   GLN A   2      -2.740  14.385  23.855  0.00  0.00    +0.227 C 
ATOM     13  O   GLN A   2      -2.233  14.992  24.801  0.00  0.00    -0.286 OA
ENDBRANCH  11  12
BRANCH  11  14
ATOM     14  CB  GLN A   2      -1.750  15.824  22.089  0.00  0.00    +0.037 C 
BRANCH  14  15
ATOM     15  CG  GLN A   2      -1.070  15.985  20.739  0.00  0.00    +0.087 C 
BRANCH  15  16
ATOM     16  CD  GLN A   2      -0.952  17.443  20.320  0.00  0.00    +0.219 C 
ATOM     17  OE1 GLN A   2      -0.331  18.256  21.007  0.00  0.00    -0.275 OA
ATOM     18  NE2 GLN A   2      -1.545  17.778  19.182  0.00  0.00    -0.329 N 
ATOM     19 HE21 GLN A   2      -1.496  18.759  18.839  0.00  0.00    +0.145 HD
ATOM     20 HE22 GLN A   2      -2.059  17.060  18.633  0.00  0.00    +0.145 HD
ENDBRANCH  15  16
ENDBRANCH  14  15
ENDBRANCH  11  14
ENDBRANCH   2  11
TORSDOF 8
REMARK  Name = ../refined-set-2016/1bn1/1bn1_pocket.pdb
REMARK  155 active torsions:
REMARK  status: ('A' for Active; 'I' for Inactive)
REMARK    1  A    between atoms: _1  and  _3
REMARK    2  A    between atoms: _3  and  _4
REMARK    3  A    between atoms: _3  and  _6
REMARK    4  A    between atoms: _6  and  _7
REMARK    5  A    between atoms: _17  and  _19
REMARK    6  A    between atoms: _19  and  _20
REMARK    7  A    between atoms: _19  and  _22
REMARK    8  A    between atoms: _22  and  _23
REMARK    9  A    between atoms: _28  and  _29
REMARK   10  A    between atoms: _31  and  _33
REMARK   11  A    between atoms: _33  and  _34
REMARK   12  A    between atoms: _33  and  _36
REMARK   13  A    between atoms: _36  and  _37
REMARK   14  A    between atoms: _40  and  _41
REMARK   15  A    between atoms: _46  and  _48
REMARK   16  A    between atoms: _48  and  _49
REMARK   17  A    between atoms: _48  and  _51
REMARK   18  A    between atoms: _51  and  _52
REMARK   19  A    between atoms: _57  and  _59
REMARK   20  A    between atoms: _59  and  _60
REMARK   21  A    between atoms: _63  and  _65
REMARK   22  A    between atoms: _65  and  _66
REMARK   23  A    between atoms: _65  and  _68
REMARK   24  A    between atoms: _68  and  _69
REMARK   25  A    between atoms: _74  and  _76
REMARK   26  A    between atoms: _76  and  _77
REMARK   27  A    between atoms: _76  and  _79
REMARK   28  A    between atoms: _79  and  _80
REMARK   29  A    between atoms: _83  and  _85
REMARK   30  A    between atoms: _85  and  _86
REMARK   31  A    between atoms: _85  and  _88
REMARK   32  A    between atoms: _88  and  _89
REMARK   33  A    between atoms: _89  and  _90
REMARK   34  A    between atoms: _95  and  _97
REMARK   35  A    between atoms: _97  and  _98
REMARK   36  A    between atoms: _97  and  _100
REMARK   37  A    between atoms: _100  and  _101
REMARK   38  A    between atoms: _107  and  _109
REMARK   39  A    between atoms: _120  and  _123
REMARK   40  A    between atoms: _123  and  _124
REMARK   41  A    between atoms: _132  and  _133
REMARK   42  A    between atoms: _141  and  _143
REMARK   43  A    between atoms: _143  and  _144
REMARK   44  A    between atoms: _143  and  _146
REMARK   45  A    between atoms: _146  and  _147
REMARK   46  A    between atoms: _147  and  _148
REMARK   47  A    between atoms: _151  and  _153
REMARK   48  A    between atoms: _153  and  _154
REMARK   49  A    between atoms: _153  and  _156
REMARK   50  A    between atoms: _156  and  _157
REMARK   51  A    between atoms: _162  and  _164
REMARK   52  A    between atoms: _164  and  _165
REMARK   53  A    between atoms: _164  and  _167
REMARK   54  A    between atoms: _167  and  _168
REMARK   55  A    between atoms: _168  and  _169
REMARK   56  A    between atoms: _172  and  _174
REMARK   57  A    between atoms: _174  and  _175
REMARK   58  A    between atoms: _174  and  _177
REMARK   59  A    between atoms: _177  and  _178
REMARK   60  A    between atoms: _181  and  _183
REMARK   61  A    between atoms: _183  and  _184
REMARK   62  A    between atoms: _183  and  _186
REMARK   63  A    between atoms: _186  and  _187
REMARK   64  A    between atoms: _188  and  ZN_428
REMARK   65  A    between atoms: _192  and  _194
REMARK   66  A    between atoms: _194  and  _195
REMARK   67  A    between atoms: _194  and  _197
REMARK   68  A    between atoms: _197  and  _198
REMARK   69  A    between atoms: _201  and  _203
REMARK   70  A    between atoms: _203  and  _204
REMARK   71  A    between atoms: _203  and  _206
REMARK   72  A    between atoms: _209  and  _211
REMARK   73  A    between atoms: _211  and  _212
REMARK   74  A    between atoms: _211  and  _214
REMARK   75  A    between atoms: _214  and  _215
REMARK   76  A    between atoms: _220  and  _222
REMARK   77  A    between atoms: _222  and  _223
REMARK   78  A    between atoms: _222  and  _225
REMARK   79  A    between atoms: _225  and  _226
REMARK   80  A    between atoms: _232  and  _234
REMARK   81  A    between atoms: _234  and  _235
REMARK   82  A    between atoms: _237  and  _239
REMARK   83  A    between atoms: _239  and  _240
REMARK   84  A    between atoms: _239  and  _242
REMARK   85  A    between atoms: _242  and  _243
REMARK   86  A    between atoms: _243  and  _244
REMARK   87  A    between atoms: _244  and  _245
REMARK   88  A    between atoms: _245  and  _246
REMARK   89  A    between atoms: _250  and  _252
REMARK   90  A    between atoms: _252  and  _253
REMARK   91  A    between atoms: _252  and  _255
REMARK   92  A    between atoms: _258  and  _260
REMARK   93  A    between atoms: _260  and  _261
REMARK   94  A    between atoms: _260  and  _263
REMARK   95  A    between atoms: _263  and  _264
REMARK   96  A    between atoms: _264  and  _265
REMARK   97  A    between atoms: _270  and  _272
REMARK   98  A    between atoms: _272  and  _273
REMARK   99  A    between atoms: _272  and  _275
REMARK  100  A    between atoms: _275  and  _276
REMARK  101  A    between atoms: _279  and  _281
REMARK  102  A    between atoms: _281  and  _282
REMARK  103  A    between atoms: _285  and  _287
REMARK  104  A    between atoms: _287  and  _288
REMARK  105  A    between atoms: _287  and  _290
REMARK  106  A    between atoms: _293  and  _295
REMARK  107  A    between atoms: _295  and  _296
REMARK  108  A    between atoms: _295  and  _298
REMARK  109  A    between atoms: _298  and  _299
REMARK  110  A    between atoms: _302  and  _304
REMARK  111  A    between atoms: _304  and  _305
REMARK  112  A    between atoms: _304  and  _307
REMARK  113  A    between atoms: _307  and  _308
REMARK  114  A    between atoms: _310  and  _312
REMARK  115  A    between atoms: _312  and  _313
REMARK  116  A    between atoms: _312  and  _315
REMARK  117  A    between atoms: _315  and  _316
REMARK  118  A    between atoms: _319  and  _321
REMARK  119  A    between atoms: _321  and  _322
REMARK  120  A    between atoms: _321  and  _324
REMARK  121  A    between atoms: _324  and  _325
REMARK  122  A    between atoms: _328  and  _330
REMARK  123  A    between atoms: _330  and  _331
REMARK  124  A    between atoms: _330  and  _333
REMARK  125  A    between atoms: _333  and  _334
REMARK  126  A    between atoms: _338  and  _339
REMARK  127  A    between atoms: _345  and  _346
REMARK  128  A    between atoms: _351  and  _353
REMARK  129  A    between atoms: _353  and  _354
REMARK  130  A    between atoms: _353  and  _356
REMARK  131  A    between atoms: _356  and  _357
REMARK  132  A    between atoms: _360  and  _362
REMARK  133  A    between atoms: _362  and  _363
REMARK  134  A    between atoms: _362  and  _365
REMARK  135  A    between atoms: _365  and  _366
REMARK  136  A    between atoms: _369  and  _371
REMARK  137  A    between atoms: _371  and  _372
REMARK  138  A    between atoms: _371  and  _374
REMARK  139  A    between atoms: _376  and  _378
REMARK  140  A    between atoms: _378  and  _379
REMARK  141  A    between atoms: _378  and  _381
REMARK  142  A    between atoms: _384  and  _386
REMARK  143  A    between atoms: _386  and  _387
REMARK  144  A    between atoms: _386  and  _389
REMARK  145  A    between atoms: _389  and  _390
REMARK  146  A    between atoms: _400  and  _402
REMARK  147  A    between atoms: _402  and  _403
REMARK  148  A    between atoms: _402  and  _405
REMARK  149  A    between atoms: _405  and  _406
REMARK  150  A    between atoms: _411  and  _413
REMARK  151  A    between atoms: _413  and  _414
REMARK  152  A    between atoms: _413  and  _416
REMARK  153  A    between atoms: _416  and  _417
REMARK  154  A    between atoms: _417  and  _418
REMARK  155  A    between atoms: _418  and  _419
REMARK                            x       y       z     vdW  Elec       q    Type
REMARK                         _______ _______ _______ _____ _____    ______ ____
ROOT
ATOM      1  C   ALA A   2     -12.460   4.943  21.054  0.00  0.00    +0.241 C 
ATOM      2  N   VAL A   3     -11.971   3.737  21.284  0.00  0.00    -0.297 N 
ATOM      3  H   VAL A   3     -11.517   3.513  22.193  0.00  0.00    +0.150 HD
ATOM      4  O   ALA A   2     -12.893   5.276  19.948  0.00  0.00    -0.273 OA
ENDROOT
BRANCH   1   5
ATOM      5  CA  ALA A   2     -12.355   5.957  22.175  0.00  0.00    +0.149 C 
ATOM      6  CB  ALA A   2     -13.730   6.523  22.501  0.00  0.00    +0.031 C 
BRANCH   5   9
ATOM      7  C   LEU A   1     -10.532   7.554  22.331  0.00  0.00    +0.238 C 
ATOM      8  O   LEU A   1     -10.302   7.286  23.513  0.00  0.00    -0.274 OA
ATOM      9  N   ALA A   2     -11.494   6.985  21.623  0.00  0.00    -0.297 N 
ATOM     10  H   ALA A   2     -11.637   7.285  20.638  0.00  0.00    +0.150 HD
BRANCH   7  11
ATOM     11  CA  LEU A   1      -9.696   8.557  21.577  0.00  0.00    +0.145 C 
BRANCH  11  12
ATOM     12  N   LEU A   1      -9.046   9.524  22.446  0.00  0.00    -0.238 NA
ATOM     13  H   LEU A   1      -8.419   9.193  23.207  0.00  0.00    +0.142 HD
ENDBRANCH  11  12
BRANCH  11  14
ATOM     14  CB  LEU A   1      -8.655   7.780  20.763  0.00  0.00    +0.026 C 
BRANCH  14  15
ATOM     15  CG  LEU A   1      -7.643   8.524  19.893  0.00  0.00    +0.002 C 
ATOM     16  CD2 LEU A   1      -6.774   7.508  19.168  0.00  0.00    +0.000 C 
ATOM     17  CD1 LEU A   1      -8.352   9.415  18.900  0.00  0.00    +0.000 C 
ENDBRANCH  14  15
ENDBRANCH  11  14
ENDBRANCH   7  11
ENDBRANCH   5   9
ENDBRANCH   1   5
BRANCH   2  18
ATOM     18  CA  VAL A   3     -12.079   2.732  20.245  0.00  0.00    +0.149 C 
BRANCH  18  19
ATOM     19  C   VAL A   3     -13.070   1.667  20.693  0.00  0.00    +0.241 C 
ATOM     20  O   VAL A   3     -13.001   1.187  21.826  0.00  0.00    -0.273 OA
ATOM     21  N   LEU A   4     -14.011   1.348  19.811  0.00  0.00    -0.298 N 
ATOM     22  H   LEU A   4     -14.030   1.850  18.900  0.00  0.00    +0.150 HD
BRANCH  21  23
ATOM     23  CA  LEU A   4     -15.013   0.330  20.063  0.00  0.00    +0.137 C 
BRANCH  23  24
ATOM     24  C   LEU A   4     -14.447  -0.938  19.459  0.00  0.00    +0.227 C 
ATOM     25  O   LEU A   4     -14.192  -0.983  18.261  0.00  0.00    -0.286 OA
ENDBRANCH  23  24
BRANCH  23  26
ATOM     26  CB  LEU A   4     -16.310   0.683  19.348  0.00  0.00    +0.028 C 
BRANCH  26  27
ATOM     27  CG  LEU A   4     -17.608   0.647  20.152  0.00  0.00    +0.002 C 
ATOM     28  CD2 LEU A   4     -17.679  -0.590  21.026  0.00  0.00    +0.000 C 
ATOM     29  CD1 LEU A   4     -18.789   0.691  19.174  0.00  0.00    +0.000 C 
ENDBRANCH  26  27
ENDBRANCH  23  26
ENDBRANCH  21  23
ENDBRANCH  18  19
BRANCH  18  30
ATOM     30  CB  VAL A   3     -10.718   2.066  19.894  0.00  0.00    +0.027 C 
ATOM     31  CG2 VAL A   3      -9.680   3.118  19.515  0.00  0.00    +0.002 C 
ATOM     32  CG1 VAL A   3     -10.907   1.085  18.736  0.00  0.00    +0.002 C 
ENDBRANCH  18  30
ENDBRANCH   2  18
TORSDOF 13
REMARK  Name = ../refined-set-2016/1bn1/1bn1_pocket.pdb
REMARK  155 active torsions:
REMARK  status: ('A' for Active; 'I' for Inactive)
REMARK    1  A    between atoms: _1  and  _3
REMARK    2  A    between atoms: _3  and  _4
REMARK    3  A    between atoms: _3  and  _6
REMARK    4  A    between atoms: _6  and  _7
REMARK    5  A    between atoms: _17  and  _19
REMARK    6  A    between atoms: _19  and  _20
REMARK    7  A    between atoms: _19  and  _22
REMARK    8  A    between atoms: _22  and  _23
REMARK    9  A    between atoms: _28  and  _29
REMARK   10  A    between atoms: _31  and  _33
REMARK   11  A    between atoms: _33  and  _34
REMARK   12  A    between atoms: _33  and  _36
REMARK   13  A    between atoms: _36  and  _37
REMARK   14  A    between atoms: _40  and  _41
REMARK   15  A    between atoms: _46  and  _48
REMARK   16  A    between atoms: _48  and  _49
REMARK   17  A    between atoms: _48  and  _51
REMARK   18  A    between atoms: _51  and  _52
REMARK   19  A    between atoms: _57  and  _59
REMARK   20  A    between atoms: _59  and  _60
REMARK   21  A    between atoms: _63  and  _65
REMARK   22  A    between atoms: _65  and  _66
REMARK   23  A    between atoms: _65  and  _68
REMARK   24  A    between atoms: _68  and  _69
REMARK   25  A    between atoms: _74  and  _76
REMARK   26  A    between atoms: _76  and  _77
REMARK   27  A    between atoms: _76  and  _79
REMARK   28  A    between atoms: _79  and  _80
REMARK   29  A    between atoms: _83  and  _85
REMARK   30  A    between atoms: _85  and  _86
REMARK   31  A    between atoms: _85  and  _88
REMARK   32  A    between atoms: _88  and  _89
REMARK   33  A    between atoms: _89  and  _90
REMARK   34  A    between atoms: _95  and  _97
REMARK   35  A    between atoms: _97  and  _98
REMARK   36  A    between atoms: _97  and  _100
REMARK   37  A    between atoms: _100  and  _101
REMARK   38  A    between atoms: _107  and  _109
REMARK   39  A    between atoms: _120  and  _123
REMARK   40  A    between atoms: _123  and  _124
REMARK   41  A    between atoms: _132  and  _133
REMARK   42  A    between atoms: _141  and  _143
REMARK   43  A    between atoms: _143  and  _144
REMARK   44  A    between atoms: _143  and  _146
REMARK   45  A    between atoms: _146  and  _147
REMARK   46  A    between atoms: _147  and  _148
REMARK   47  A    between atoms: _151  and  _153
REMARK   48  A    between atoms: _153  and  _154
REMARK   49  A    between atoms: _153  and  _156
REMARK   50  A    between atoms: _156  and  _157
REMARK   51  A    between atoms: _162  and  _164
REMARK   52  A    between atoms: _164  and  _165
REMARK   53  A    between atoms: _164  and  _167
REMARK   54  A    between atoms: _167  and  _168
REMARK   55  A    between atoms: _168  and  _169
REMARK   56  A    between atoms: _172  and  _174
REMARK   57  A    between atoms: _174  and  _175
REMARK   58  A    between atoms: _174  and  _177
REMARK   59  A    between atoms: _177  and  _178
REMARK   60  A    between atoms: _181  and  _183
REMARK   61  A    between atoms: _183  and  _184
REMARK   62  A    between atoms: _183  and  _186
REMARK   63  A    between atoms: _186  and  _187
REMARK   64  A    between atoms: _188  and  ZN_428
REMARK   65  A    between atoms: _192  and  _194
REMARK   66  A    between atoms: _194  and  _195
REMARK   67  A    between atoms: _194  and  _197
REMARK   68  A    between atoms: _197  and  _198
REMARK   69  A    between atoms: _201  and  _203
REMARK   70  A    between atoms: _203  and  _204
REMARK   71  A    between atoms: _203  and  _206
REMARK   72  A    between atoms: _209  and  _211
REMARK   73  A    between atoms: _211  and  _212
REMARK   74  A    between atoms: _211  and  _214
REMARK   75  A    between atoms: _214  and  _215
REMARK   76  A    between atoms: _220  and  _222
REMARK   77  A    between atoms: _222  and  _223
REMARK   78  A    between atoms: _222  and  _225
REMARK   79  A    between atoms: _225  and  _226
REMARK   80  A    between atoms: _232  and  _234
REMARK   81  A    between atoms: _234  and  _235
REMARK   82  A    between atoms: _237  and  _239
REMARK   83  A    between atoms: _239  and  _240
REMARK   84  A    between atoms: _239  and  _242
REMARK   85  A    between atoms: _242  and  _243
REMARK   86  A    between atoms: _243  and  _244
REMARK   87  A    between atoms: _244  and  _245
REMARK   88  A    between atoms: _245  and  _246
REMARK   89  A    between atoms: _250  and  _252
REMARK   90  A    between atoms: _252  and  _253
REMARK   91  A    between atoms: _252  and  _255
REMARK   92  A    between atoms: _258  and  _260
REMARK   93  A    between atoms: _260  and  _261
REMARK   94  A    between atoms: _260  and  _263
REMARK   95  A    between atoms: _263  and  _264
REMARK   96  A    between atoms: _264  and  _265
REMARK   97  A    between atoms: _270  and  _272
REMARK   98  A    between atoms: _272  and  _273
REMARK   99  A    between atoms: _272  and  _275
REMARK  100  A    between atoms: _275  and  _276
REMARK  101  A    between atoms: _279  and  _281
REMARK  102  A    between atoms: _281  and  _282
REMARK  103  A    between atoms: _285  and  _287
REMARK  104  A    between atoms: _287  and  _288
REMARK  105  A    between atoms: _287  and  _290
REMARK  106  A    between atoms: _293  and  _295
REMARK  107  A    between atoms: _295  and  _296
REMARK  108  A    between atoms: _295  and  _298
REMARK  109  A    between atoms: _298  and  _299
REMARK  110  A    between atoms: _302  and  _304
REMARK  111  A    between atoms: _304  and  _305
REMARK  112  A    between atoms: _304  and  _307
REMARK  113  A    between atoms: _307  and  _308
REMARK  114  A    between atoms: _310  and  _312
REMARK  115  A    between atoms: _312  and  _313
REMARK  116  A    between atoms: _312  and  _315
REMARK  117  A    between atoms: _315  and  _316
REMARK  118  A    between atoms: _319  and  _321
REMARK  119  A    between atoms: _321  and  _322
REMARK  120  A    between atoms: _321  and  _324
REMARK  121  A    between atoms: _324  and  _325
REMARK  122  A    between atoms: _328  and  _330
REMARK  123  A    between atoms: _330  and  _331
REMARK  124  A    between atoms: _330  and  _333
REMARK  125  A    between atoms: _333  and  _334
REMARK  126  A    between atoms: _338  and  _339
REMARK  127  A    between atoms: _345  and  _346
REMARK  128  A    between atoms: _351  and  _353
REMARK  129  A    between atoms: _353  and  _354
REMARK  130  A    between atoms: _353  and  _356
REMARK  131  A    between atoms: _356  and  _357
REMARK  132  A    between atoms: _360  and  _362
REMARK  133  A    between atoms: _362  and  _363
REMARK  134  A    between atoms: _362  and  _365
REMARK  135  A    between atoms: _365  and  _366
REMARK  136  A    between atoms: _369  and  _371
REMARK  137  A    between atoms: _371  and  _372
REMARK  138  A    between atoms: _371  and  _374
REMARK  139  A    between atoms: _376  and  _378
REMARK  140  A    between atoms: _378  and  _379
REMARK  141  A    between atoms: _378  and  _381
REMARK  142  A    between atoms: _384  and  _386
REMARK  143  A    between atoms: _386  and  _387
REMARK  144  A    between atoms: _386  and  _389
REMARK  145  A    between atoms: _389  and  _390
REMARK  146  A    between atoms: _400  and  _402
REMARK  147  A    between atoms: _402  and  _403
REMARK  148  A    between atoms: _402  and  _405
REMARK  149  A    between atoms: _405  and  _406
REMARK  150  A    between atoms: _411  and  _413
REMARK  151  A    between atoms: _413  and  _414
REMARK  152  A    between atoms: _413  and  _416
REMARK  153  A    between atoms: _416  and  _417
REMARK  154  A    between atoms: _417  and  _418
REMARK  155  A    between atoms: _418  and  _419
REMARK                            x       y       z     vdW  Elec       q    Type
REMARK                         _______ _______ _______ _____ _____    ______ ____
ROOT
ATOM      1  C   THR A   4       0.881   1.197  16.590  0.00  0.00    +0.246 C 
ATOM      2  O   THR A   4       0.386   2.121  17.260  0.00  0.00    -0.273 OA
ATOM      3  N   PRO A   5       2.141   1.253  16.121  0.00  0.00    -0.272 N 
ATOM      4  CA  PRO A   5       2.899   2.484  16.344  0.00  0.00    +0.152 C 
ATOM      5  CB  PRO A   5       4.154   2.247  15.509  0.00  0.00    +0.031 C 
ATOM      6  CG  PRO A   5       4.399   0.796  15.714  0.00  0.00    +0.024 C 
ATOM      7  CD  PRO A   5       2.998   0.215  15.519  0.00  0.00    +0.094 C 
ENDROOT
BRANCH   4   8
ATOM      8  C   PRO A   5       2.038   3.623  15.785  0.00  0.00    +0.244 C 
ATOM      9  N   PRO A   6       2.131   4.832  16.360  0.00  0.00    -0.272 N 
ATOM     10  CA  PRO A   6       2.958   5.284  17.483  0.00  0.00    +0.152 C 
ATOM     11  CB  PRO A   6       2.896   6.803  17.341  0.00  0.00    +0.031 C 
ATOM     12  CG  PRO A   6       1.493   7.031  16.847  0.00  0.00    +0.024 C 
ATOM     13  CD  PRO A   6       1.319   5.942  15.818  0.00  0.00    +0.094 C 
ATOM     14  O   PRO A   5       1.340   3.436  14.786  0.00  0.00    -0.273 OA
BRANCH  10  15
ATOM     15  C   PRO A   6       2.599   4.811  18.900  0.00  0.00    +0.241 C 
ATOM     16  O   PRO A   6       3.189   5.280  19.867  0.00  0.00    -0.273 OA
ATOM     17  N   LEU A   7       1.627   3.909  19.028  0.00  0.00    -0.297 N 
ATOM     18  H   LEU A   7       1.126   3.586  18.176  0.00  0.00    +0.150 HD
BRANCH  17  19
ATOM     19  CA  LEU A   7       1.238   3.354  20.334  0.00  0.00    +0.149 C 
BRANCH  19  20
ATOM     20  C   LEU A   7       0.904   4.398  21.413  0.00  0.00    +0.241 C 
ATOM     21  O   LEU A   7       1.166   4.185  22.603  0.00  0.00    -0.273 OA
ATOM     22  N   LEU A   8       0.299   5.508  20.996  0.00  0.00    -0.298 N 
ATOM     23  H   LEU A   8       0.078   5.606  19.984  0.00  0.00    +0.150 HD
BRANCH  22  24
ATOM     24  CA  LEU A   8      -0.067   6.593  21.902  0.00  0.00    +0.137 C 
BRANCH  24  25
ATOM     25  C   LEU A   8      -1.079   6.134  22.949  0.00  0.00    +0.227 C 
ATOM     26  O   LEU A   8      -2.069   5.490  22.629  0.00  0.00    -0.286 OA
ENDBRANCH  24  25
BRANCH  24  27
ATOM     27  CB  LEU A   8      -0.623   7.774  21.097  0.00  0.00    +0.028 C 
BRANCH  27  28
ATOM     28  CG  LEU A   8       0.342   8.255  20.005  0.00  0.00    +0.002 C 
ATOM     29  CD2 LEU A   8       1.687   8.603  20.598  0.00  0.00    +0.000 C 
ATOM     30  CD1 LEU A   8      -0.229   9.453  19.297  0.00  0.00    +0.000 C 
ENDBRANCH  27  28
ENDBRANCH  24  27
ENDBRANCH  22  24
ENDBRANCH  19  20
BRANCH  19  31
ATOM     31  CB  LEU A   7       2.351   2.426  20.833  0.00  0.00    +0.029 C 
BRANCH  31  32
ATOM     32  CG  LEU A   7       2.769   1.316  19.859  0.00  0.00    +0.002 C 
ATOM     33  CD2 LEU A   7       4.163   0.803  20.208  0.00  0.00    +0.000 C 
ATOM     34  CD1 LEU A   7       1.741   0.185  19.858  0.00  0.00    +0.000 C 
ENDBRANCH  31  32
ENDBRANCH  19  31
ENDBRANCH  17  19
ENDBRANCH  10  15
ENDBRANCH   4   8
BRANCH   1  35
ATOM     35  CA  THR A   4       0.089  -0.076  16.335  0.00  0.00    +0.176 C 
BRANCH  35  38
ATOM     36  C   THR A   3      -1.154  -1.193  18.114  0.00  0.00    +0.243 C 
ATOM     37  O   THR A   3      -0.531  -2.242  17.944  0.00  0.00    -0.273 OA
ATOM     38  N   THR A   4      -0.964  -0.114  17.354  0.00  0.00    -0.295 N 
ATOM     39  H   THR A   4      -1.575   0.717  17.487  0.00  0.00    +0.150 HD
BRANCH  36  40
ATOM     40  CA  THR A   3      -2.234  -1.117  19.186  0.00  0.00    +0.176 C 
BRANCH  40  43
ATOM     41  C   LEU A   2      -2.535   1.100  20.047  0.00  0.00    +0.241 C 
ATOM     42  O   LEU A   2      -1.576   0.958  20.816  0.00  0.00    -0.273 OA
ATOM     43  N   THR A   3      -2.929   0.153  19.217  0.00  0.00    -0.295 N 
ATOM     44  H   THR A   3      -3.738   0.319  18.585  0.00  0.00    +0.150 HD
BRANCH  41  45
ATOM     45  CA  LEU A   2      -3.315   2.394  20.033  0.00  0.00    +0.149 C 
BRANCH  45  48
ATOM     46  C   SER A   1      -3.769   2.282  22.413  0.00  0.00    +0.241 C 
ATOM     47  O   SER A   1      -4.618   1.403  22.255  0.00  0.00    -0.274 OA
ATOM     48  N   LEU A   2      -3.127   2.852  21.401  0.00  0.00    -0.297 N 
ATOM     49  H   LEU A   2      -2.477   3.641  21.590  0.00  0.00    +0.150 HD
BRANCH  46  50
ATOM     50  CA  SER A   1      -3.394   2.791  23.806  0.00  0.00    +0.174 C 
BRANCH  50  51
ATOM     51  N   SER A   1      -4.091   2.095  24.884  0.00  0.00    -0.236 NA
ATOM     52  H   SER A   1      -4.260   1.073  24.792  0.00  0.00    +0.142 HD
ENDBRANCH  50  51
BRANCH  50  53
ATOM     53  CB  SER A   1      -1.890   2.544  23.963  0.00  0.00    +0.163 C 
BRANCH  53  54
ATOM     54  OG  SER A   1      -1.573   1.183  23.671  0.00  0.00    -0.380 OA
ATOM     55  H   SER A   1      -1.838   0.976  22.740  0.00  0.00    +0.211 HD
ENDBRANCH  53  54
ENDBRANCH  50  53
ENDBRANCH  46  50
ENDBRANCH  45  48
BRANCH  45  56
ATOM     56  CB  LEU A   2      -2.650   3.349  19.050  0.00  0.00    +0.029 C 
BRANCH  56  57
ATOM     57  CG  LEU A   2      -3.276   4.737  18.968  0.00  0.00    +0.002 C 
ATOM     58  CD2 LEU A   2      -4.690   4.628  18.419  0.00  0.00    +0.000 C 
ATOM     59  CD1 LEU A   2      -2.400   5.626  18.094  0.00  0.00    +0.000 C 
ENDBRANCH  56  57
ENDBRANCH  45  56
ENDBRANCH  41  45
ENDBRANCH  40  43
BRANCH  40  60
ATOM     60  CB  THR A   3      -3.207  -2.280  19.031  0.00  0.00    +0.137 C 
ATOM     61  CG2 THR A   3      -4.209  -2.300  20.189  0.00  0.00    +0.034 C 
BRANCH  60  62
ATOM     62  OG1 THR A   3      -3.913  -2.138  17.799  0.00  0.00    -0.382 OA
ATOM     63  HG1 THR A   3      -4.546  -2.892  17.694  0.00  0.00    +0.210 HD
ENDBRANCH  60  62
ENDBRANCH  40  60
ENDBRANCH  36  40
ENDBRANCH  35  38
BRANCH  35  64
ATOM     64  CB  THR A   4      -0.458   0.037  14.885  0.00  0.00    +0.137 C 
ATOM     65  CG2 THR A   4      -1.343  -1.130  14.517  0.00  0.00    +0.034 C 
BRANCH  64  66
ATOM     66  OG1 THR A   4      -1.192   1.257  14.748  0.00  0.00    -0.382 OA
ATOM     67  HG1 THR A   4      -0.594   2.023  14.937  0.00  0.00    +0.210 HD
ENDBRANCH  64  66
ENDBRANCH  35  64
ENDBRANCH   1  35
TORSDOF 26
REMARK  Name = ../refined-set-2016/1bn1/1bn1_pocket.pdb
REMARK  155 active torsions:
REMARK  status: ('A' for Active; 'I' for Inactive)
REMARK    1  A    between atoms: _1  and  _3
REMARK    2  A    between atoms: _3  and  _4
REMARK    3  A    between atoms: _3  and  _6
REMARK    4  A    between atoms: _6  and  _7
REMARK    5  A    between atoms: _17  and  _19
REMARK    6  A    between atoms: _19  and  _20
REMARK    7  A    between atoms: _19  and  _22
REMARK    8  A    between atoms: _22  and  _23
REMARK    9  A    between atoms: _28  and  _29
REMARK   10  A    between atoms: _31  and  _33
REMARK   11  A    between atoms: _33  and  _34
REMARK   12  A    between atoms: _33  and  _36
REMARK   13  A    between atoms: _36  and  _37
REMARK   14  A    between atoms: _40  and  _41
REMARK   15  A    between atoms: _46  and  _48
REMARK   16  A    between atoms: _48  and  _49
REMARK   17  A    between atoms: _48  and  _51
REMARK   18  A    between atoms: _51  and  _52
REMARK   19  A    between atoms: _57  and  _59
REMARK   20  A    between atoms: _59  and  _60
REMARK   21  A    between atoms: _63  and  _65
REMARK   22  A    between atoms: _65  and  _66
REMARK   23  A    between atoms: _65  and  _68
REMARK   24  A    between atoms: _68  and  _69
REMARK   25  A    between atoms: _74  and  _76
REMARK   26  A    between atoms: _76  and  _77
REMARK   27  A    between atoms: _76  and  _79
REMARK   28  A    between atoms: _79  and  _80
REMARK   29  A    between atoms: _83  and  _85
REMARK   30  A    between atoms: _85  and  _86
REMARK   31  A    between atoms: _85  and  _88
REMARK   32  A    between atoms: _88  and  _89
REMARK   33  A    between atoms: _89  and  _90
REMARK   34  A    between atoms: _95  and  _97
REMARK   35  A    between atoms: _97  and  _98
REMARK   36  A    between atoms: _97  and  _100
REMARK   37  A    between atoms: _100  and  _101
REMARK   38  A    between atoms: _107  and  _109
REMARK   39  A    between atoms: _120  and  _123
REMARK   40  A    between atoms: _123  and  _124
REMARK   41  A    between atoms: _132  and  _133
REMARK   42  A    between atoms: _141  and  _143
REMARK   43  A    between atoms: _143  and  _144
REMARK   44  A    between atoms: _143  and  _146
REMARK   45  A    between atoms: _146  and  _147
REMARK   46  A    between atoms: _147  and  _148
REMARK   47  A    between atoms: _151  and  _153
REMARK   48  A    between atoms: _153  and  _154
REMARK   49  A    between atoms: _153  and  _156
REMARK   50  A    between atoms: _156  and  _157
REMARK   51  A    between atoms: _162  and  _164
REMARK   52  A    between atoms: _164  and  _165
REMARK   53  A    between atoms: _164  and  _167
REMARK   54  A    between atoms: _167  and  _168
REMARK   55  A    between atoms: _168  and  _169
REMARK   56  A    between atoms: _172  and  _174
REMARK   57  A    between atoms: _174  and  _175
REMARK   58  A    between atoms: _174  and  _177
REMARK   59  A    between atoms: _177  and  _178
REMARK   60  A    between atoms: _181  and  _183
REMARK   61  A    between atoms: _183  and  _184
REMARK   62  A    between atoms: _183  and  _186
REMARK   63  A    between atoms: _186  and  _187
REMARK   64  A    between atoms: _188  and  ZN_428
REMARK   65  A    between atoms: _192  and  _194
REMARK   66  A    between atoms: _194  and  _195
REMARK   67  A    between atoms: _194  and  _197
REMARK   68  A    between atoms: _197  and  _198
REMARK   69  A    between atoms: _201  and  _203
REMARK   70  A    between atoms: _203  and  _204
REMARK   71  A    between atoms: _203  and  _206
REMARK   72  A    between atoms: _209  and  _211
REMARK   73  A    between atoms: _211  and  _212
REMARK   74  A    between atoms: _211  and  _214
REMARK   75  A    between atoms: _214  and  _215
REMARK   76  A    between atoms: _220  and  _222
REMARK   77  A    between atoms: _222  and  _223
REMARK   78  A    between atoms: _222  and  _225
REMARK   79  A    between atoms: _225  and  _226
REMARK   80  A    between atoms: _232  and  _234
REMARK   81  A    between atoms: _234  and  _235
REMARK   82  A    between atoms: _237  and  _239
REMARK   83  A    between atoms: _239  and  _240
REMARK   84  A    between atoms: _239  and  _242
REMARK   85  A    between atoms: _242  and  _243
REMARK   86  A    between atoms: _243  and  _244
REMARK   87  A    between atoms: _244  and  _245
REMARK   88  A    between atoms: _245  and  _246
REMARK   89  A    between atoms: _250  and  _252
REMARK   90  A    between atoms: _252  and  _253
REMARK   91  A    between atoms: _252  and  _255
REMARK   92  A    between atoms: _258  and  _260
REMARK   93  A    between atoms: _260  and  _261
REMARK   94  A    between atoms: _260  and  _263
REMARK   95  A    between atoms: _263  and  _264
REMARK   96  A    between atoms: _264  and  _265
REMARK   97  A    between atoms: _270  and  _272
REMARK   98  A    between atoms: _272  and  _273
REMARK   99  A    between atoms: _272  and  _275
REMARK  100  A    between atoms: _275  and  _276
REMARK  101  A    between atoms: _279  and  _281
REMARK  102  A    between atoms: _281  and  _282
REMARK  103  A    between atoms: _285  and  _287
REMARK  104  A    between atoms: _287  and  _288
REMARK  105  A    between atoms: _287  and  _290
REMARK  106  A    between atoms: _293  and  _295
REMARK  107  A    between atoms: _295  and  _296
REMARK  108  A    between atoms: _295  and  _298
REMARK  109  A    between atoms: _298  and  _299
REMARK  110  A    between atoms: _302  and  _304
REMARK  111  A    between atoms: _304  and  _305
REMARK  112  A    between atoms: _304  and  _307
REMARK  113  A    between atoms: _307  and  _308
REMARK  114  A    between atoms: _310  and  _312
REMARK  115  A    between atoms: _312  and  _313
REMARK  116  A    between atoms: _312  and  _315
REMARK  117  A    between atoms: _315  and  _316
REMARK  118  A    between atoms: _319  and  _321
REMARK  119  A    between atoms: _321  and  _322
REMARK  120  A    between atoms: _321  and  _324
REMARK  121  A    between atoms: _324  and  _325
REMARK  122  A    between atoms: _328  and  _330
REMARK  123  A    between atoms: _330  and  _331
REMARK  124  A    between atoms: _330  and  _333
REMARK  125  A    between atoms: _333  and  _334
REMARK  126  A    between atoms: _338  and  _339
REMARK  127  A    between atoms: _345  and  _346
REMARK  128  A    between atoms: _351  and  _353
REMARK  129  A    between atoms: _353  and  _354
REMARK  130  A    between atoms: _353  and  _356
REMARK  131  A    between atoms: _356  and  _357
REMARK  132  A    between atoms: _360  and  _362
REMARK  133  A    between atoms: _362  and  _363
REMARK  134  A    between atoms: _362  and  _365
REMARK  135  A    between atoms: _365  and  _366
REMARK  136  A    between atoms: _369  and  _371
REMARK  137  A    between atoms: _371  and  _372
REMARK  138  A    between atoms: _371  and  _374
REMARK  139  A    between atoms: _376  and  _378
REMARK  140  A    between atoms: _378  and  _379
REMARK  141  A    between atoms: _378  and  _381
REMARK  142  A    between atoms: _384  and  _386
REMARK  143  A    between atoms: _386  and  _387
REMARK  144  A    between atoms: _386  and  _389
REMARK  145  A    between atoms: _389  and  _390
REMARK  146  A    between atoms: _400  and  _402
REMARK  147  A    between atoms: _402  and  _403
REMARK  148  A    between atoms: _402  and  _405
REMARK  149  A    between atoms: _405  and  _406
REMARK  150  A    between atoms: _411  and  _413
REMARK  151  A    between atoms: _413  and  _414
REMARK  152  A    between atoms: _413  and  _416
REMARK  153  A    between atoms: _416  and  _417
REMARK  154  A    between atoms: _417  and  _418
REMARK  155  A    between atoms: _418  and  _419
REMARK                            x       y       z     vdW  Elec       q    Type
REMARK                         _______ _______ _______ _____ _____    ______ ____
ROOT
ATOM      1  C   CYS A   1      -6.107   7.525  24.334  0.00  0.00    +0.239 C 
ATOM      2  N   VAL A   2      -6.172   6.206  24.497  0.00  0.00    -0.298 N 
ATOM      3  H   VAL A   2      -5.328   5.678  24.799  0.00  0.00    +0.150 HD
ATOM      4  O   CYS A   1      -7.113   8.216  24.142  0.00  0.00    -0.274 OA
ENDROOT
BRANCH   1   5
ATOM      5  CA  CYS A   1      -4.741   8.192  24.477  0.00  0.00    +0.156 C 
BRANCH   5   6
ATOM      6  N   CYS A   1      -3.670   7.206  24.512  0.00  0.00    -0.237 NA
ATOM      7  H   CYS A   1      -3.599   6.528  23.727  0.00  0.00    +0.142 HD
ENDBRANCH   5   6
BRANCH   5   8
ATOM      8  CB  CYS A   1      -4.534   9.093  23.238  0.00  0.00    +0.095 C 
ATOM      9  SG  CYS A   1      -2.825   9.766  22.975  0.00  0.00    -0.080 S 
ENDBRANCH   5   8
ENDBRANCH   1   5
BRANCH   2  10
ATOM     10  CA  VAL A   2      -7.431   5.496  24.252  0.00  0.00    +0.137 C 
BRANCH  10  11
ATOM     11  CB  VAL A   2      -7.195   4.315  23.255  0.00  0.00    +0.026 C 
ATOM     12  CG2 VAL A   2      -8.523   3.672  22.850  0.00  0.00    +0.002 C 
ATOM     13  CG1 VAL A   2      -6.417   4.781  22.024  0.00  0.00    +0.002 C 
ENDBRANCH  10  11
BRANCH  10  14
ATOM     14  C   VAL A   2      -8.264   4.919  25.392  0.00  0.00    +0.227 C 
ATOM     15  O   VAL A   2      -7.752   4.227  26.266  0.00  0.00    -0.286 OA
ENDBRANCH  10  14
ENDBRANCH   2  10
TORSDOF 6
REMARK  Name = ../refined-set-2016/1bn1/1bn1_pocket.pdb
REMARK  155 active torsions:
REMARK  status: ('A' for Active; 'I' for Inactive)
REMARK    1  A    between atoms: _1  and  _3
REMARK    2  A    between atoms: _3  and  _4
REMARK    3  A    between atoms: _3  and  _6
REMARK    4  A    between atoms: _6  and  _7
REMARK    5  A    between atoms: _17  and  _19
REMARK    6  A    between atoms: _19  and  _20
REMARK    7  A    between atoms: _19  and  _22
REMARK    8  A    between atoms: _22  and  _23
REMARK    9  A    between atoms: _28  and  _29
REMARK   10  A    between atoms: _31  and  _33
REMARK   11  A    between atoms: _33  and  _34
REMARK   12  A    between atoms: _33  and  _36
REMARK   13  A    between atoms: _36  and  _37
REMARK   14  A    between atoms: _40  and  _41
REMARK   15  A    between atoms: _46  and  _48
REMARK   16  A    between atoms: _48  and  _49
REMARK   17  A    between atoms: _48  and  _51
REMARK   18  A    between atoms: _51  and  _52
REMARK   19  A    between atoms: _57  and  _59
REMARK   20  A    between atoms: _59  and  _60
REMARK   21  A    between atoms: _63  and  _65
REMARK   22  A    between atoms: _65  and  _66
REMARK   23  A    between atoms: _65  and  _68
REMARK   24  A    between atoms: _68  and  _69
REMARK   25  A    between atoms: _74  and  _76
REMARK   26  A    between atoms: _76  and  _77
REMARK   27  A    between atoms: _76  and  _79
REMARK   28  A    between atoms: _79  and  _80
REMARK   29  A    between atoms: _83  and  _85
REMARK   30  A    between atoms: _85  and  _86
REMARK   31  A    between atoms: _85  and  _88
REMARK   32  A    between atoms: _88  and  _89
REMARK   33  A    between atoms: _89  and  _90
REMARK   34  A    between atoms: _95  and  _97
REMARK   35  A    between atoms: _97  and  _98
REMARK   36  A    between atoms: _97  and  _100
REMARK   37  A    between atoms: _100  and  _101
REMARK   38  A    between atoms: _107  and  _109
REMARK   39  A    between atoms: _120  and  _123
REMARK   40  A    between atoms: _123  and  _124
REMARK   41  A    between atoms: _132  and  _133
REMARK   42  A    between atoms: _141  and  _143
REMARK   43  A    between atoms: _143  and  _144
REMARK   44  A    between atoms: _143  and  _146
REMARK   45  A    between atoms: _146  and  _147
REMARK   46  A    between atoms: _147  and  _148
REMARK   47  A    between atoms: _151  and  _153
REMARK   48  A    between atoms: _153  and  _154
REMARK   49  A    between atoms: _153  and  _156
REMARK   50  A    between atoms: _156  and  _157
REMARK   51  A    between atoms: _162  and  _164
REMARK   52  A    between atoms: _164  and  _165
REMARK   53  A    between atoms: _164  and  _167
REMARK   54  A    between atoms: _167  and  _168
REMARK   55  A    between atoms: _168  and  _169
REMARK   56  A    between atoms: _172  and  _174
REMARK   57  A    between atoms: _174  and  _175
REMARK   58  A    between atoms: _174  and  _177
REMARK   59  A    between atoms: _177  and  _178
REMARK   60  A    between atoms: _181  and  _183
REMARK   61  A    between atoms: _183  and  _184
REMARK   62  A    between atoms: _183  and  _186
REMARK   63  A    between atoms: _186  and  _187
REMARK   64  A    between atoms: _188  and  ZN_428
REMARK   65  A    between atoms: _192  and  _194
REMARK   66  A    between atoms: _194  and  _195
REMARK   67  A    between atoms: _194  and  _197
REMARK   68  A    between atoms: _197  and  _198
REMARK   69  A    between atoms: _201  and  _203
REMARK   70  A    between atoms: _203  and  _204
REMARK   71  A    between atoms: _203  and  _206
REMARK   72  A    between atoms: _209  and  _211
REMARK   73  A    between atoms: _211  and  _212
REMARK   74  A    between atoms: _211  and  _214
REMARK   75  A    between atoms: _214  and  _215
REMARK   76  A    between atoms: _220  and  _222
REMARK   77  A    between atoms: _222  and  _223
REMARK   78  A    between atoms: _222  and  _225
REMARK   79  A    between atoms: _225  and  _226
REMARK   80  A    between atoms: _232  and  _234
REMARK   81  A    between atoms: _234  and  _235
REMARK   82  A    between atoms: _237  and  _239
REMARK   83  A    between atoms: _239  and  _240
REMARK   84  A    between atoms: _239  and  _242
REMARK   85  A    between atoms: _242  and  _243
REMARK   86  A    between atoms: _243  and  _244
REMARK   87  A    between atoms: _244  and  _245
REMARK   88  A    between atoms: _245  and  _246
REMARK   89  A    between atoms: _250  and  _252
REMARK   90  A    between atoms: _252  and  _253
REMARK   91  A    between atoms: _252  and  _255
REMARK   92  A    between atoms: _258  and  _260
REMARK   93  A    between atoms: _260  and  _261
REMARK   94  A    between atoms: _260  and  _263
REMARK   95  A    between atoms: _263  and  _264
REMARK   96  A    between atoms: _264  and  _265
REMARK   97  A    between atoms: _270  and  _272
REMARK   98  A    between atoms: _272  and  _273
REMARK   99  A    between atoms: _272  and  _275
REMARK  100  A    between atoms: _275  and  _276
REMARK  101  A    between atoms: _279  and  _281
REMARK  102  A    between atoms: _281  and  _282
REMARK  103  A    between atoms: _285  and  _287
REMARK  104  A    between atoms: _287  and  _288
REMARK  105  A    between atoms: _287  and  _290
REMARK  106  A    between atoms: _293  and  _295
REMARK  107  A    between atoms: _295  and  _296
REMARK  108  A    between atoms: _295  and  _298
REMARK  109  A    between atoms: _298  and  _299
REMARK  110  A    between atoms: _302  and  _304
REMARK  111  A    between atoms: _304  and  _305
REMARK  112  A    between atoms: _304  and  _307
REMARK  113  A    between atoms: _307  and  _308
REMARK  114  A    between atoms: _310  and  _312
REMARK  115  A    between atoms: _312  and  _313
REMARK  116  A    between atoms: _312  and  _315
REMARK  117  A    between atoms: _315  and  _316
REMARK  118  A    between atoms: _319  and  _321
REMARK  119  A    between atoms: _321  and  _322
REMARK  120  A    between atoms: _321  and  _324
REMARK  121  A    between atoms: _324  and  _325
REMARK  122  A    between atoms: _328  and  _330
REMARK  123  A    between atoms: _330  and  _331
REMARK  124  A    between atoms: _330  and  _333
REMARK  125  A    between atoms: _333  and  _334
REMARK  126  A    between atoms: _338  and  _339
REMARK  127  A    between atoms: _345  and  _346
REMARK  128  A    between atoms: _351  and  _353
REMARK  129  A    between atoms: _353  and  _354
REMARK  130  A    between atoms: _353  and  _356
REMARK  131  A    between atoms: _356  and  _357
REMARK  132  A    between atoms: _360  and  _362
REMARK  133  A    between atoms: _362  and  _363
REMARK  134  A    between atoms: _362  and  _365
REMARK  135  A    between atoms: _365  and  _366
REMARK  136  A    between atoms: _369  and  _371
REMARK  137  A    between atoms: _371  and  _372
REMARK  138  A    between atoms: _371  and  _374
REMARK  139  A    between atoms: _376  and  _378
REMARK  140  A    between atoms: _378  and  _379
REMARK  141  A    between atoms: _378  and  _381
REMARK  142  A    between atoms: _384  and  _386
REMARK  143  A    between atoms: _386  and  _387
REMARK  144  A    between atoms: _386  and  _389
REMARK  145  A    between atoms: _389  and  _390
REMARK  146  A    between atoms: _400  and  _402
REMARK  147  A    between atoms: _402  and  _403
REMARK  148  A    between atoms: _402  and  _405
REMARK  149  A    between atoms: _405  and  _406
REMARK  150  A    between atoms: _411  and  _413
REMARK  151  A    between atoms: _413  and  _414
REMARK  152  A    between atoms: _413  and  _416
REMARK  153  A    between atoms: _416  and  _417
REMARK  154  A    between atoms: _417  and  _418
REMARK  155  A    between atoms: _418  and  _419
REMARK                            x       y       z     vdW  Elec       q    Type
REMARK                         _______ _______ _______ _____ _____    ______ ____
ROOT
ATOM      1  CG  TRP A   1      -9.037  -0.018  24.339  0.00  0.00    -0.002 A 
ATOM      2  CD1 TRP A   1      -7.786   0.517  24.515  0.00  0.00    +0.068 A 
ATOM      3  NE1 TRP A   1      -7.062   0.412  23.347  0.00  0.00    -0.352 N 
ATOM      4  HE1 TRP A   1      -6.086   0.744  23.210  0.00  0.00    +0.166 HD
ATOM      5  CE2 TRP A   1      -7.835  -0.201  22.394  0.00  0.00    +0.056 A 
ATOM      6  CZ2 TRP A   1      -7.540  -0.527  21.066  0.00  0.00    +0.017 A 
ATOM      7  CH2 TRP A   1      -8.521  -1.142  20.335  0.00  0.00    +0.001 A 
ATOM      8  CZ3 TRP A   1      -9.786  -1.439  20.894  0.00  0.00    +0.000 A 
ATOM      9  CE3 TRP A   1     -10.079  -1.117  22.211  0.00  0.00    +0.001 A 
ATOM     10  CD2 TRP A   1      -9.091  -0.485  22.984  0.00  0.00    +0.013 A 
ENDROOT
BRANCH   1  11
ATOM     11  CB  TRP A   1     -10.126  -0.086  25.333  0.00  0.00    +0.053 C 
BRANCH  11  12
ATOM     12  CA  TRP A   1     -11.136   1.047  25.173  0.00  0.00    +0.137 C 
BRANCH  12  13
ATOM     13  N   TRP A   1     -10.691   2.219  25.887  0.00  0.00    -0.239 NA
ATOM     14  H   TRP A   1     -10.099   2.105  26.735  0.00  0.00    +0.142 HD
ENDBRANCH  12  13
BRANCH  12  15
ATOM     15  C   TRP A   1     -12.485   0.593  25.660  0.00  0.00    +0.224 C 
ATOM     16  O   TRP A   1     -12.733   0.567  26.864  0.00  0.00    -0.287 OA
ENDBRANCH  12  15
ENDBRANCH  11  12
ENDBRANCH   1  11
TORSDOF 4
REMARK  Name = ../refined-set-2016/1bn1/1bn1_pocket.pdb
REMARK  155 active torsions:
REMARK  status: ('A' for Active; 'I' for Inactive)
REMARK    1  A    between atoms: _1  and  _3
REMARK    2  A    between atoms: _3  and  _4
REMARK    3  A    between atoms: _3  and  _6
REMARK    4  A    between atoms: _6  and  _7
REMARK    5  A    between atoms: _17  and  _19
REMARK    6  A    between atoms: _19  and  _20
REMARK    7  A    between atoms: _19  and  _22
REMARK    8  A    between atoms: _22  and  _23
REMARK    9  A    between atoms: _28  and  _29
REMARK   10  A    between atoms: _31  and  _33
REMARK   11  A    between atoms: _33  and  _34
REMARK   12  A    between atoms: _33  and  _36
REMARK   13  A    between atoms: _36  and  _37
REMARK   14  A    between atoms: _40  and  _41
REMARK   15  A    between atoms: _46  and  _48
REMARK   16  A    between atoms: _48  and  _49
REMARK   17  A    between atoms: _48  and  _51
REMARK   18  A    between atoms: _51  and  _52
REMARK   19  A    between atoms: _57  and  _59
REMARK   20  A    between atoms: _59  and  _60
REMARK   21  A    between atoms: _63  and  _65
REMARK   22  A    between atoms: _65  and  _66
REMARK   23  A    between atoms: _65  and  _68
REMARK   24  A    between atoms: _68  and  _69
REMARK   25  A    between atoms: _74  and  _76
REMARK   26  A    between atoms: _76  and  _77
REMARK   27  A    between atoms: _76  and  _79
REMARK   28  A    between atoms: _79  and  _80
REMARK   29  A    between atoms: _83  and  _85
REMARK   30  A    between atoms: _85  and  _86
REMARK   31  A    between atoms: _85  and  _88
REMARK   32  A    between atoms: _88  and  _89
REMARK   33  A    between atoms: _89  and  _90
REMARK   34  A    between atoms: _95  and  _97
REMARK   35  A    between atoms: _97  and  _98
REMARK   36  A    between atoms: _97  and  _100
REMARK   37  A    between atoms: _100  and  _101
REMARK   38  A    between atoms: _107  and  _109
REMARK   39  A    between atoms: _120  and  _123
REMARK   40  A    between atoms: _123  and  _124
REMARK   41  A    between atoms: _132  and  _133
REMARK   42  A    between atoms: _141  and  _143
REMARK   43  A    between atoms: _143  and  _144
REMARK   44  A    between atoms: _143  and  _146
REMARK   45  A    between atoms: _146  and  _147
REMARK   46  A    between atoms: _147  and  _148
REMARK   47  A    between atoms: _151  and  _153
REMARK   48  A    between atoms: _153  and  _154
REMARK   49  A    between atoms: _153  and  _156
REMARK   50  A    between atoms: _156  and  _157
REMARK   51  A    between atoms: _162  and  _164
REMARK   52  A    between atoms: _164  and  _165
REMARK   53  A    between atoms: _164  and  _167
REMARK   54  A    between atoms: _167  and  _168
REMARK   55  A    between atoms: _168  and  _169
REMARK   56  A    between atoms: _172  and  _174
REMARK   57  A    between atoms: _174  and  _175
REMARK   58  A    between atoms: _174  and  _177
REMARK   59  A    between atoms: _177  and  _178
REMARK   60  A    between atoms: _181  and  _183
REMARK   61  A    between atoms: _183  and  _184
REMARK   62  A    between atoms: _183  and  _186
REMARK   63  A    between atoms: _186  and  _187
REMARK   64  A    between atoms: _188  and  ZN_428
REMARK   65  A    between atoms: _192  and  _194
REMARK   66  A    between atoms: _194  and  _195
REMARK   67  A    between atoms: _194  and  _197
REMARK   68  A    between atoms: _197  and  _198
REMARK   69  A    between atoms: _201  and  _203
REMARK   70  A    between atoms: _203  and  _204
REMARK   71  A    between atoms: _203  and  _206
REMARK   72  A    between atoms: _209  and  _211
REMARK   73  A    between atoms: _211  and  _212
REMARK   74  A    between atoms: _211  and  _214
REMARK   75  A    between atoms: _214  and  _215
REMARK   76  A    between atoms: _220  and  _222
REMARK   77  A    between atoms: _222  and  _223
REMARK   78  A    between atoms: _222  and  _225
REMARK   79  A    between atoms: _225  and  _226
REMARK   80  A    between atoms: _232  and  _234
REMARK   81  A    between atoms: _234  and  _235
REMARK   82  A    between atoms: _237  and  _239
REMARK   83  A    between atoms: _239  and  _240
REMARK   84  A    between atoms: _239  and  _242
REMARK   85  A    between atoms: _242  and  _243
REMARK   86  A    between atoms: _243  and  _244
REMARK   87  A    between atoms: _244  and  _245
REMARK   88  A    between atoms: _245  and  _246
REMARK   89  A    between atoms: _250  and  _252
REMARK   90  A    between atoms: _252  and  _253
REMARK   91  A    between atoms: _252  and  _255
REMARK   92  A    between atoms: _258  and  _260
REMARK   93  A    between atoms: _260  and  _261
REMARK   94  A    between atoms: _260  and  _263
REMARK   95  A    between atoms: _263  and  _264
REMARK   96  A    between atoms: _264  and  _265
REMARK   97  A    between atoms: _270  and  _272
REMARK   98  A    between atoms: _272  and  _273
REMARK   99  A    between atoms: _272  and  _275
REMARK  100  A    between atoms: _275  and  _276
REMARK  101  A    between atoms: _279  and  _281
REMARK  102  A    between atoms: _281  and  _282
REMARK  103  A    between atoms: _285  and  _287
REMARK  104  A    between atoms: _287  and  _288
REMARK  105  A    between atoms: _287  and  _290
REMARK  106  A    between atoms: _293  and  _295
REMARK  107  A    between atoms: _295  and  _296
REMARK  108  A    between atoms: _295  and  _298
REMARK  109  A    between atoms: _298  and  _299
REMARK  110  A    between atoms: _302  and  _304
REMARK  111  A    between atoms: _304  and  _305
REMARK  112  A    between atoms: _304  and  _307
REMARK  113  A    between atoms: _307  and  _308
REMARK  114  A    between atoms: _310  and  _312
REMARK  115  A    between atoms: _312  and  _313
REMARK  116  A    between atoms: _312  and  _315
REMARK  117  A    between atoms: _315  and  _316
REMARK  118  A    between atoms: _319  and  _321
REMARK  119  A    between atoms: _321  and  _322
REMARK  120  A    between atoms: _321  and  _324
REMARK  121  A    between atoms: _324  and  _325
REMARK  122  A    between atoms: _328  and  _330
REMARK  123  A    between atoms: _330  and  _331
REMARK  124  A    between atoms: _330  and  _333
REMARK  125  A    between atoms: _333  and  _334
REMARK  126  A    between atoms: _338  and  _339
REMARK  127  A    between atoms: _345  and  _346
REMARK  128  A    between atoms: _351  and  _353
REMARK  129  A    between atoms: _353  and  _354
REMARK  130  A    between atoms: _353  and  _356
REMARK  131  A    between atoms: _356  and  _357
REMARK  132  A    between atoms: _360  and  _362
REMARK  133  A    between atoms: _362  and  _363
REMARK  134  A    between atoms: _362  and  _365
REMARK  135  A    between atoms: _365  and  _366
REMARK  136  A    between atoms: _369  and  _371
REMARK  137  A    between atoms: _371  and  _372
REMARK  138  A    between atoms: _371  and  _374
REMARK  139  A    between atoms: _376  and  _378
REMARK  140  A    between atoms: _378  and  _379
REMARK  141  A    between atoms: _378  and  _381
REMARK  142  A    between atoms: _384  and  _386
REMARK  143  A    between atoms: _386  and  _387
REMARK  144  A    between atoms: _386  and  _389
REMARK  145  A    between atoms: _389  and  _390
REMARK  146  A    between atoms: _400  and  _402
REMARK  147  A    between atoms: _402  and  _403
REMARK  148  A    between atoms: _402  and  _405
REMARK  149  A    between atoms: _405  and  _406
REMARK  150  A    between atoms: _411  and  _413
REMARK  151  A    between atoms: _413  and  _414
REMARK  152  A    between atoms: _413  and  _416
REMARK  153  A    between atoms: _416  and  _417
REMARK  154  A    between atoms: _417  and  _418
REMARK  155  A    between atoms: _418  and  _419
REMARK                            x       y       z     vdW  Elec       q    Type
REMARK                         _______ _______ _______ _____ _____    ______ ____
ROOT
ATOM      1  CB  ASN A   1      -2.205  -7.122  10.514  0.00  0.00    +0.110 C 
ENDROOT
BRANCH   1   2
ATOM      2  CG  ASN A   1      -3.693  -7.319  10.297  0.00  0.00    +0.221 C 
ATOM      3  OD1 ASN A   1      -4.304  -8.244  10.841  0.00  0.00    -0.275 OA
ATOM      4  ND2 ASN A   1      -4.284  -6.453   9.493  0.00  0.00    -0.329 N 
ATOM      5 HD21 ASN A   1      -5.302  -6.536   9.298  0.00  0.00    +0.145 HD
ATOM      6 HD22 ASN A   1      -3.731  -5.688   9.056  0.00  0.00    +0.145 HD
ENDBRANCH   1   2
BRANCH   1   7
ATOM      7  CA  ASN A   1      -1.631  -8.024  11.620  0.00  0.00    +0.142 C 
BRANCH   7   8
ATOM      8  N   ASN A   1      -1.976  -9.417  11.381  0.00  0.00    -0.239 NA
ATOM      9  H   ASN A   1      -2.883  -9.647  10.927  0.00  0.00    +0.142 HD
ENDBRANCH   7   8
BRANCH   7  10
ATOM     10  C   ASN A   1      -2.167  -7.624  13.006  0.00  0.00    +0.225 C 
ATOM     11  O   ASN A   1      -2.859  -6.622  13.148  0.00  0.00    -0.287 OA
ENDBRANCH   7  10
ENDBRANCH   1   7
TORSDOF 4
REMARK  Name = ../refined-set-2016/1bn1/1bn1_pocket.pdb
REMARK  155 active torsions:
REMARK  status: ('A' for Active; 'I' for Inactive)
REMARK    1  A    between atoms: _1  and  _3
REMARK    2  A    between atoms: _3  and  _4
REMARK    3  A    between atoms: _3  and  _6
REMARK    4  A    between atoms: _6  and  _7
REMARK    5  A    between atoms: _17  and  _19
REMARK    6  A    between atoms: _19  and  _20
REMARK    7  A    between atoms: _19  and  _22
REMARK    8  A    between atoms: _22  and  _23
REMARK    9  A    between atoms: _28  and  _29
REMARK   10  A    between atoms: _31  and  _33
REMARK   11  A    between atoms: _33  and  _34
REMARK   12  A    between atoms: _33  and  _36
REMARK   13  A    between atoms: _36  and  _37
REMARK   14  A    between atoms: _40  and  _41
REMARK   15  A    between atoms: _46  and  _48
REMARK   16  A    between atoms: _48  and  _49
REMARK   17  A    between atoms: _48  and  _51
REMARK   18  A    between atoms: _51  and  _52
REMARK   19  A    between atoms: _57  and  _59
REMARK   20  A    between atoms: _59  and  _60
REMARK   21  A    between atoms: _63  and  _65
REMARK   22  A    between atoms: _65  and  _66
REMARK   23  A    between atoms: _65  and  _68
REMARK   24  A    between atoms: _68  and  _69
REMARK   25  A    between atoms: _74  and  _76
REMARK   26  A    between atoms: _76  and  _77
REMARK   27  A    between atoms: _76  and  _79
REMARK   28  A    between atoms: _79  and  _80
REMARK   29  A    between atoms: _83  and  _85
REMARK   30  A    between atoms: _85  and  _86
REMARK   31  A    between atoms: _85  and  _88
REMARK   32  A    between atoms: _88  and  _89
REMARK   33  A    between atoms: _89  and  _90
REMARK   34  A    between atoms: _95  and  _97
REMARK   35  A    between atoms: _97  and  _98
REMARK   36  A    between atoms: _97  and  _100
REMARK   37  A    between atoms: _100  and  _101
REMARK   38  A    between atoms: _107  and  _109
REMARK   39  A    between atoms: _120  and  _123
REMARK   40  A    between atoms: _123  and  _124
REMARK   41  A    between atoms: _132  and  _133
REMARK   42  A    between atoms: _141  and  _143
REMARK   43  A    between atoms: _143  and  _144
REMARK   44  A    between atoms: _143  and  _146
REMARK   45  A    between atoms: _146  and  _147
REMARK   46  A    between atoms: _147  and  _148
REMARK   47  A    between atoms: _151  and  _153
REMARK   48  A    between atoms: _153  and  _154
REMARK   49  A    between atoms: _153  and  _156
REMARK   50  A    between atoms: _156  and  _157
REMARK   51  A    between atoms: _162  and  _164
REMARK   52  A    between atoms: _164  and  _165
REMARK   53  A    between atoms: _164  and  _167
REMARK   54  A    between atoms: _167  and  _168
REMARK   55  A    between atoms: _168  and  _169
REMARK   56  A    between atoms: _172  and  _174
REMARK   57  A    between atoms: _174  and  _175
REMARK   58  A    between atoms: _174  and  _177
REMARK   59  A    between atoms: _177  and  _178
REMARK   60  A    between atoms: _181  and  _183
REMARK   61  A    between atoms: _183  and  _184
REMARK   62  A    between atoms: _183  and  _186
REMARK   63  A    between atoms: _186  and  _187
REMARK   64  A    between atoms: _188  and  ZN_428
REMARK   65  A    between atoms: _192  and  _194
REMARK   66  A    between atoms: _194  and  _195
REMARK   67  A    between atoms: _194  and  _197
REMARK   68  A    between atoms: _197  and  _198
REMARK   69  A    between atoms: _201  and  _203
REMARK   70  A    between atoms: _203  and  _204
REMARK   71  A    between atoms: _203  and  _206
REMARK   72  A    between atoms: _209  and  _211
REMARK   73  A    between atoms: _211  and  _212
REMARK   74  A    between atoms: _211  and  _214
REMARK   75  A    between atoms: _214  and  _215
REMARK   76  A    between atoms: _220  and  _222
REMARK   77  A    between atoms: _222  and  _223
REMARK   78  A    between atoms: _222  and  _225
REMARK   79  A    between atoms: _225  and  _226
REMARK   80  A    between atoms: _232  and  _234
REMARK   81  A    between atoms: _234  and  _235
REMARK   82  A    between atoms: _237  and  _239
REMARK   83  A    between atoms: _239  and  _240
REMARK   84  A    between atoms: _239  and  _242
REMARK   85  A    between atoms: _242  and  _243
REMARK   86  A    between atoms: _243  and  _244
REMARK   87  A    between atoms: _244  and  _245
REMARK   88  A    between atoms: _245  and  _246
REMARK   89  A    between atoms: _250  and  _252
REMARK   90  A    between atoms: _252  and  _253
REMARK   91  A    between atoms: _252  and  _255
REMARK   92  A    between atoms: _258  and  _260
REMARK   93  A    between atoms: _260  and  _261
REMARK   94  A    between atoms: _260  and  _263
REMARK   95  A    between atoms: _263  and  _264
REMARK   96  A    between atoms: _264  and  _265
REMARK   97  A    between atoms: _270  and  _272
REMARK   98  A    between atoms: _272  and  _273
REMARK   99  A    between atoms: _272  and  _275
REMARK  100  A    between atoms: _275  and  _276
REMARK  101  A    between atoms: _279  and  _281
REMARK  102  A    between atoms: _281  and  _282
REMARK  103  A    between atoms: _285  and  _287
REMARK  104  A    between atoms: _287  and  _288
REMARK  105  A    between atoms: _287  and  _290
REMARK  106  A    between atoms: _293  and  _295
REMARK  107  A    between atoms: _295  and  _296
REMARK  108  A    between atoms: _295  and  _298
REMARK  109  A    between atoms: _298  and  _299
REMARK  110  A    between atoms: _302  and  _304
REMARK  111  A    between atoms: _304  and  _305
REMARK  112  A    between atoms: _304  and  _307
REMARK  113  A    between atoms: _307  and  _308
REMARK  114  A    between atoms: _310  and  _312
REMARK  115  A    between atoms: _312  and  _313
REMARK  116  A    between atoms: _312  and  _315
REMARK  117  A    between atoms: _315  and  _316
REMARK  118  A    between atoms: _319  and  _321
REMARK  119  A    between atoms: _321  and  _322
REMARK  120  A    between atoms: _321  and  _324
REMARK  121  A    between atoms: _324  and  _325
REMARK  122  A    between atoms: _328  and  _330
REMARK  123  A    between atoms: _330  and  _331
REMARK  124  A    between atoms: _330  and  _333
REMARK  125  A    between atoms: _333  and  _334
REMARK  126  A    between atoms: _338  and  _339
REMARK  127  A    between atoms: _345  and  _346
REMARK  128  A    between atoms: _351  and  _353
REMARK  129  A    between atoms: _353  and  _354
REMARK  130  A    between atoms: _353  and  _356
REMARK  131  A    between atoms: _356  and  _357
REMARK  132  A    between atoms: _360  and  _362
REMARK  133  A    between atoms: _362  and  _363
REMARK  134  A    between atoms: _362  and  _365
REMARK  135  A    between atoms: _365  and  _366
REMARK  136  A    between atoms: _369  and  _371
REMARK  137  A    between atoms: _371  and  _372
REMARK  138  A    between atoms: _371  and  _374
REMARK  139  A    between atoms: _376  and  _378
REMARK  140  A    between atoms: _378  and  _379
REMARK  141  A    between atoms: _378  and  _381
REMARK  142  A    between atoms: _384  and  _386
REMARK  143  A    between atoms: _386  and  _387
REMARK  144  A    between atoms: _386  and  _389
REMARK  145  A    between atoms: _389  and  _390
REMARK  146  A    between atoms: _400  and  _402
REMARK  147  A    between atoms: _402  and  _403
REMARK  148  A    between atoms: _402  and  _405
REMARK  149  A    between atoms: _405  and  _406
REMARK  150  A    between atoms: _411  and  _413
REMARK  151  A    between atoms: _413  and  _414
REMARK  152  A    between atoms: _413  and  _416
REMARK  153  A    between atoms: _416  and  _417
REMARK  154  A    between atoms: _417  and  _418
REMARK  155  A    between atoms: _418  and  _419
REMARK                            x       y       z     vdW  Elec       q    Type
REMARK                         _______ _______ _______ _____ _____    ______ ____
ROOT
ATOM      1  NE  ARG A   1       1.998  -3.773  21.176  0.00  0.00    -0.265 N 
ATOM      2  CZ  ARG A   1       2.128  -2.811  22.074  0.00  0.00    +0.342 C 
ATOM      3  NH2 ARG A   1       3.320  -2.580  22.601  0.00  0.00    -0.292 N 
ATOM      4 HH21 ARG A   1       3.439  -1.827  23.308  0.00  0.00    +0.255 HD
ATOM      5 HH22 ARG A   1       4.138  -3.151  22.308  0.00  0.00    +0.255 HD
ATOM      6  NH1 ARG A   1       1.077  -2.074  22.433  0.00  0.00    -0.292 N 
ATOM      7 HH11 ARG A   1       1.188  -1.319  23.140  0.00  0.00    +0.255 HD
ATOM      8 HH12 ARG A   1       0.146  -2.254  22.006  0.00  0.00    +0.255 HD
ATOM      9  HE  ARG A   1       2.848  -4.320  20.931  0.00  0.00    +0.259 HD
ENDROOT
BRANCH   1  10
ATOM     10  CD  ARG A   1       0.757  -4.123  20.505  0.00  0.00    +0.174 C 
BRANCH  10  11
ATOM     11  CG  ARG A   1       0.899  -5.487  19.868  0.00  0.00    +0.045 C 
BRANCH  11  12
ATOM     12  CB  ARG A   1      -0.229  -5.778  18.906  0.00  0.00    +0.029 C 
BRANCH  12  13
ATOM     13  CA  ARG A   1      -0.307  -7.243  18.472  0.00  0.00    +0.133 C 
BRANCH  13  14
ATOM     14  N   ARG A   1      -1.301  -7.385  17.434  0.00  0.00    -0.239 NA
ATOM     15  H   ARG A   1      -2.203  -6.878  17.535  0.00  0.00    +0.142 HD
ENDBRANCH  13  14
BRANCH  13  16
ATOM     16  C   ARG A   1      -0.678  -8.113  19.678  0.00  0.00    +0.224 C 
ATOM     17  O   ARG A   1      -1.851  -8.226  20.034  0.00  0.00    -0.287 OA
ENDBRANCH  13  16
ENDBRANCH  12  13
ENDBRANCH  11  12
ENDBRANCH  10  11
ENDBRANCH   1  10
TORSDOF 6
REMARK  Name = ../refined-set-2016/1bn1/1bn1_pocket.pdb
REMARK  155 active torsions:
REMARK  status: ('A' for Active; 'I' for Inactive)
REMARK    1  A    between atoms: _1  and  _3
REMARK    2  A    between atoms: _3  and  _4
REMARK    3  A    between atoms: _3  and  _6
REMARK    4  A    between atoms: _6  and  _7
REMARK    5  A    between atoms: _17  and  _19
REMARK    6  A    between atoms: _19  and  _20
REMARK    7  A    between atoms: _19  and  _22
REMARK    8  A    between atoms: _22  and  _23
REMARK    9  A    between atoms: _28  and  _29
REMARK   10  A    between atoms: _31  and  _33
REMARK   11  A    between atoms: _33  and  _34
REMARK   12  A    between atoms: _33  and  _36
REMARK   13  A    between atoms: _36  and  _37
REMARK   14  A    between atoms: _40  and  _41
REMARK   15  A    between atoms: _46  and  _48
REMARK   16  A    between atoms: _48  and  _49
REMARK   17  A    between atoms: _48  and  _51
REMARK   18  A    between atoms: _51  and  _52
REMARK   19  A    between atoms: _57  and  _59
REMARK   20  A    between atoms: _59  and  _60
REMARK   21  A    between atoms: _63  and  _65
REMARK   22  A    between atoms: _65  and  _66
REMARK   23  A    between atoms: _65  and  _68
REMARK   24  A    between atoms: _68  and  _69
REMARK   25  A    between atoms: _74  and  _76
REMARK   26  A    between atoms: _76  and  _77
REMARK   27  A    between atoms: _76  and  _79
REMARK   28  A    between atoms: _79  and  _80
REMARK   29  A    between atoms: _83  and  _85
REMARK   30  A    between atoms: _85  and  _86
REMARK   31  A    between atoms: _85  and  _88
REMARK   32  A    between atoms: _88  and  _89
REMARK   33  A    between atoms: _89  and  _90
REMARK   34  A    between atoms: _95  and  _97
REMARK   35  A    between atoms: _97  and  _98
REMARK   36  A    between atoms: _97  and  _100
REMARK   37  A    between atoms: _100  and  _101
REMARK   38  A    between atoms: _107  and  _109
REMARK   39  A    between atoms: _120  and  _123
REMARK   40  A    between atoms: _123  and  _124
REMARK   41  A    between atoms: _132  and  _133
REMARK   42  A    between atoms: _141  and  _143
REMARK   43  A    between atoms: _143  and  _144
REMARK   44  A    between atoms: _143  and  _146
REMARK   45  A    between atoms: _146  and  _147
REMARK   46  A    between atoms: _147  and  _148
REMARK   47  A    between atoms: _151  and  _153
REMARK   48  A    between atoms: _153  and  _154
REMARK   49  A    between atoms: _153  and  _156
REMARK   50  A    between atoms: _156  and  _157
REMARK   51  A    between atoms: _162  and  _164
REMARK   52  A    between atoms: _164  and  _165
REMARK   53  A    between atoms: _164  and  _167
REMARK   54  A    between atoms: _167  and  _168
REMARK   55  A    between atoms: _168  and  _169
REMARK   56  A    between atoms: _172  and  _174
REMARK   57  A    between atoms: _174  and  _175
REMARK   58  A    between atoms: _174  and  _177
REMARK   59  A    between atoms: _177  and  _178
REMARK   60  A    between atoms: _181  and  _183
REMARK   61  A    between atoms: _183  and  _184
REMARK   62  A    between atoms: _183  and  _186
REMARK   63  A    between atoms: _186  and  _187
REMARK   64  A    between atoms: _188  and  ZN_428
REMARK   65  A    between atoms: _192  and  _194
REMARK   66  A    between atoms: _194  and  _195
REMARK   67  A    between atoms: _194  and  _197
REMARK   68  A    between atoms: _197  and  _198
REMARK   69  A    between atoms: _201  and  _203
REMARK   70  A    between atoms: _203  and  _204
REMARK   71  A    between atoms: _203  and  _206
REMARK   72  A    between atoms: _209  and  _211
REMARK   73  A    between atoms: _211  and  _212
REMARK   74  A    between atoms: _211  and  _214
REMARK   75  A    between atoms: _214  and  _215
REMARK   76  A    between atoms: _220  and  _222
REMARK   77  A    between atoms: _222  and  _223
REMARK   78  A    between atoms: _222  and  _225
REMARK   79  A    between atoms: _225  and  _226
REMARK   80  A    between atoms: _232  and  _234
REMARK   81  A    between atoms: _234  and  _235
REMARK   82  A    between atoms: _237  and  _239
REMARK   83  A    between atoms: _239  and  _240
REMARK   84  A    between atoms: _239  and  _242
REMARK   85  A    between atoms: _242  and  _243
REMARK   86  A    between atoms: _243  and  _244
REMARK   87  A    between atoms: _244  and  _245
REMARK   88  A    between atoms: _245  and  _246
REMARK   89  A    between atoms: _250  and  _252
REMARK   90  A    between atoms: _252  and  _253
REMARK   91  A    between atoms: _252  and  _255
REMARK   92  A    between atoms: _258  and  _260
REMARK   93  A    between atoms: _260  and  _261
REMARK   94  A    between atoms: _260  and  _263
REMARK   95  A    between atoms: _263  and  _264
REMARK   96  A    between atoms: _264  and  _265
REMARK   97  A    between atoms: _270  and  _272
REMARK   98  A    between atoms: _272  and  _273
REMARK   99  A    between atoms: _272  and  _275
REMARK  100  A    between atoms: _275  and  _276
REMARK  101  A    between atoms: _279  and  _281
REMARK  102  A    between atoms: _281  and  _282
REMARK  103  A    between atoms: _285  and  _287
REMARK  104  A    between atoms: _287  and  _288
REMARK  105  A    between atoms: _287  and  _290
REMARK  106  A    between atoms: _293  and  _295
REMARK  107  A    between atoms: _295  and  _296
REMARK  108  A    between atoms: _295  and  _298
REMARK  109  A    between atoms: _298  and  _299
REMARK  110  A    between atoms: _302  and  _304
REMARK  111  A    between atoms: _304  and  _305
REMARK  112  A    between atoms: _304  and  _307
REMARK  113  A    between atoms: _307  and  _308
REMARK  114  A    between atoms: _310  and  _312
REMARK  115  A    between atoms: _312  and  _313
REMARK  116  A    between atoms: _312  and  _315
REMARK  117  A    between atoms: _315  and  _316
REMARK  118  A    between atoms: _319  and  _321
REMARK  119  A    between atoms: _321  and  _322
REMARK  120  A    between atoms: _321  and  _324
REMARK  121  A    between atoms: _324  and  _325
REMARK  122  A    between atoms: _328  and  _330
REMARK  123  A    between atoms: _330  and  _331
REMARK  124  A    between atoms: _330  and  _333
REMARK  125  A    between atoms: _333  and  _334
REMARK  126  A    between atoms: _338  and  _339
REMARK  127  A    between atoms: _345  and  _346
REMARK  128  A    between atoms: _351  and  _353
REMARK  129  A    between atoms: _353  and  _354
REMARK  130  A    between atoms: _353  and  _356
REMARK  131  A    between atoms: _356  and  _357
REMARK  132  A    between atoms: _360  and  _362
REMARK  133  A    between atoms: _362  and  _363
REMARK  134  A    between atoms: _362  and  _365
REMARK  135  A    between atoms: _365  and  _366
REMARK  136  A    between atoms: _369  and  _371
REMARK  137  A    between atoms: _371  and  _372
REMARK  138  A    between atoms: _371  and  _374
REMARK  139  A    between atoms: _376  and  _378
REMARK  140  A    between atoms: _378  and  _379
REMARK  141  A    between atoms: _378  and  _381
REMARK  142  A    between atoms: _384  and  _386
REMARK  143  A    between atoms: _386  and  _387
REMARK  144  A    between atoms: _386  and  _389
REMARK  145  A    between atoms: _389  and  _390
REMARK  146  A    between atoms: _400  and  _402
REMARK  147  A    between atoms: _402  and  _403
REMARK  148  A    between atoms: _402  and  _405
REMARK  149  A    between atoms: _405  and  _406
REMARK  150  A    between atoms: _411  and  _413
REMARK  151  A    between atoms: _413  and  _414
REMARK  152  A    between atoms: _413  and  _416
REMARK  153  A    between atoms: _416  and  _417
REMARK  154  A    between atoms: _417  and  _418
REMARK  155  A    between atoms: _418  and  _419
REMARK                            x       y       z     vdW  Elec       q    Type
REMARK                         _______ _______ _______ _____ _____    ______ ____
ROOT
ATOM      1  O   HOH     1      -4.686   0.825  11.034  0.00  0.00    +0.000 OA
ENDROOT
TORSDOF 0
REMARK  Name = ../refined-set-2016/1bn1/1bn1_pocket.pdb
REMARK  155 active torsions:
REMARK  status: ('A' for Active; 'I' for Inactive)
REMARK    1  A    between atoms: _1  and  _3
REMARK    2  A    between atoms: _3  and  _4
REMARK    3  A    between atoms: _3  and  _6
REMARK    4  A    between atoms: _6  and  _7
REMARK    5  A    between atoms: _17  and  _19
REMARK    6  A    between atoms: _19  and  _20
REMARK    7  A    between atoms: _19  and  _22
REMARK    8  A    between atoms: _22  and  _23
REMARK    9  A    between atoms: _28  and  _29
REMARK   10  A    between atoms: _31  and  _33
REMARK   11  A    between atoms: _33  and  _34
REMARK   12  A    between atoms: _33  and  _36
REMARK   13  A    between atoms: _36  and  _37
REMARK   14  A    between atoms: _40  and  _41
REMARK   15  A    between atoms: _46  and  _48
REMARK   16  A    between atoms: _48  and  _49
REMARK   17  A    between atoms: _48  and  _51
REMARK   18  A    between atoms: _51  and  _52
REMARK   19  A    between atoms: _57  and  _59
REMARK   20  A    between atoms: _59  and  _60
REMARK   21  A    between atoms: _63  and  _65
REMARK   22  A    between atoms: _65  and  _66
REMARK   23  A    between atoms: _65  and  _68
REMARK   24  A    between atoms: _68  and  _69
REMARK   25  A    between atoms: _74  and  _76
REMARK   26  A    between atoms: _76  and  _77
REMARK   27  A    between atoms: _76  and  _79
REMARK   28  A    between atoms: _79  and  _80
REMARK   29  A    between atoms: _83  and  _85
REMARK   30  A    between atoms: _85  and  _86
REMARK   31  A    between atoms: _85  and  _88
REMARK   32  A    between atoms: _88  and  _89
REMARK   33  A    between atoms: _89  and  _90
REMARK   34  A    between atoms: _95  and  _97
REMARK   35  A    between atoms: _97  and  _98
REMARK   36  A    between atoms: _97  and  _100
REMARK   37  A    between atoms: _100  and  _101
REMARK   38  A    between atoms: _107  and  _109
REMARK   39  A    between atoms: _120  and  _123
REMARK   40  A    between atoms: _123  and  _124
REMARK   41  A    between atoms: _132  and  _133
REMARK   42  A    between atoms: _141  and  _143
REMARK   43  A    between atoms: _143  and  _144
REMARK   44  A    between atoms: _143  and  _146
REMARK   45  A    between atoms: _146  and  _147
REMARK   46  A    between atoms: _147  and  _148
REMARK   47  A    between atoms: _151  and  _153
REMARK   48  A    between atoms: _153  and  _154
REMARK   49  A    between atoms: _153  and  _156
REMARK   50  A    between atoms: _156  and  _157
REMARK   51  A    between atoms: _162  and  _164
REMARK   52  A    between atoms: _164  and  _165
REMARK   53  A    between atoms: _164  and  _167
REMARK   54  A    between atoms: _167  and  _168
REMARK   55  A    between atoms: _168  and  _169
REMARK   56  A    between atoms: _172  and  _174
REMARK   57  A    between atoms: _174  and  _175
REMARK   58  A    between atoms: _174  and  _177
REMARK   59  A    between atoms: _177  and  _178
REMARK   60  A    between atoms: _181  and  _183
REMARK   61  A    between atoms: _183  and  _184
REMARK   62  A    between atoms: _183  and  _186
REMARK   63  A    between atoms: _186  and  _187
REMARK   64  A    between atoms: _188  and  ZN_428
REMARK   65  A    between atoms: _192  and  _194
REMARK   66  A    between atoms: _194  and  _195
REMARK   67  A    between atoms: _194  and  _197
REMARK   68  A    between atoms: _197  and  _198
REMARK   69  A    between atoms: _201  and  _203
REMARK   70  A    between atoms: _203  and  _204
REMARK   71  A    between atoms: _203  and  _206
REMARK   72  A    between atoms: _209  and  _211
REMARK   73  A    between atoms: _211  and  _212
REMARK   74  A    between atoms: _211  and  _214
REMARK   75  A    between atoms: _214  and  _215
REMARK   76  A    between atoms: _220  and  _222
REMARK   77  A    between atoms: _222  and  _223
REMARK   78  A    between atoms: _222  and  _225
REMARK   79  A    between atoms: _225  and  _226
REMARK   80  A    between atoms: _232  and  _234
REMARK   81  A    between atoms: _234  and  _235
REMARK   82  A    between atoms: _237  and  _239
REMARK   83  A    between atoms: _239  and  _240
REMARK   84  A    between atoms: _239  and  _242
REMARK   85  A    between atoms: _242  and  _243
REMARK   86  A    between atoms: _243  and  _244
REMARK   87  A    between atoms: _244  and  _245
REMARK   88  A    between atoms: _245  and  _246
REMARK   89  A    between atoms: _250  and  _252
REMARK   90  A    between atoms: _252  and  _253
REMARK   91  A    between atoms: _252  and  _255
REMARK   92  A    between atoms: _258  and  _260
REMARK   93  A    between atoms: _260  and  _261
REMARK   94  A    between atoms: _260  and  _263
REMARK   95  A    between atoms: _263  and  _264
REMARK   96  A    between atoms: _264  and  _265
REMARK   97  A    between atoms: _270  and  _272
REMARK   98  A    between atoms: _272  and  _273
REMARK   99  A    between atoms: _272  and  _275
REMARK  100  A    between atoms: _275  and  _276
REMARK  101  A    between atoms: _279  and  _281
REMARK  102  A    between atoms: _281  and  _282
REMARK  103  A    between atoms: _285  and  _287
REMARK  104  A    between atoms: _287  and  _288
REMARK  105  A    between atoms: _287  and  _290
REMARK  106  A    between atoms: _293  and  _295
REMARK  107  A    between atoms: _295  and  _296
REMARK  108  A    between atoms: _295  and  _298
REMARK  109  A    between atoms: _298  and  _299
REMARK  110  A    between atoms: _302  and  _304
REMARK  111  A    between atoms: _304  and  _305
REMARK  112  A    between atoms: _304  and  _307
REMARK  113  A    between atoms: _307  and  _308
REMARK  114  A    between atoms: _310  and  _312
REMARK  115  A    between atoms: _312  and  _313
REMARK  116  A    between atoms: _312  and  _315
REMARK  117  A    between atoms: _315  and  _316
REMARK  118  A    between atoms: _319  and  _321
REMARK  119  A    between atoms: _321  and  _322
REMARK  120  A    between atoms: _321  and  _324
REMARK  121  A    between atoms: _324  and  _325
REMARK  122  A    between atoms: _328  and  _330
REMARK  123  A    between atoms: _330  and  _331
REMARK  124  A    between atoms: _330  and  _333
REMARK  125  A    between atoms: _333  and  _334
REMARK  126  A    between atoms: _338  and  _339
REMARK  127  A    between atoms: _345  and  _346
REMARK  128  A    between atoms: _351  and  _353
REMARK  129  A    between atoms: _353  and  _354
REMARK  130  A    between atoms: _353  and  _356
REMARK  131  A    between atoms: _356  and  _357
REMARK  132  A    between atoms: _360  and  _362
REMARK  133  A    between atoms: _362  and  _363
REMARK  134  A    between atoms: _362  and  _365
REMARK  135  A    between atoms: _365  and  _366
REMARK  136  A    between atoms: _369  and  _371
REMARK  137  A    between atoms: _371  and  _372
REMARK  138  A    between atoms: _371  and  _374
REMARK  139  A    between atoms: _376  and  _378
REMARK  140  A    between atoms: _378  and  _379
REMARK  141  A    between atoms: _378  and  _381
REMARK  142  A    between atoms: _384  and  _386
REMARK  143  A    between atoms: _386  and  _387
REMARK  144  A    between atoms: _386  and  _389
REMARK  145  A    between atoms: _389  and  _390
REMARK  146  A    between atoms: _400  and  _402
REMARK  147  A    between atoms: _402  and  _403
REMARK  148  A    between atoms: _402  and  _405
REMARK  149  A    between atoms: _405  and  _406
REMARK  150  A    between atoms: _411  and  _413
REMARK  151  A    between atoms: _413  and  _414
REMARK  152  A    between atoms: _413  and  _416
REMARK  153  A    between atoms: _416  and  _417
REMARK  154  A    between atoms: _417  and  _418
REMARK  155  A    between atoms: _418  and  _419
REMARK                            x       y       z     vdW  Elec       q    Type
REMARK                         _______ _______ _______ _____ _____    ______ ____
ROOT
ATOM      1  O   HOH     1      -1.424  -4.061  15.965  0.00  0.00    +0.000 OA
ENDROOT
TORSDOF 0
REMARK  Name = ../refined-set-2016/1bn1/1bn1_pocket.pdb
REMARK  155 active torsions:
REMARK  status: ('A' for Active; 'I' for Inactive)
REMARK    1  A    between atoms: _1  and  _3
REMARK    2  A    between atoms: _3  and  _4
REMARK    3  A    between atoms: _3  and  _6
REMARK    4  A    between atoms: _6  and  _7
REMARK    5  A    between atoms: _17  and  _19
REMARK    6  A    between atoms: _19  and  _20
REMARK    7  A    between atoms: _19  and  _22
REMARK    8  A    between atoms: _22  and  _23
REMARK    9  A    between atoms: _28  and  _29
REMARK   10  A    between atoms: _31  and  _33
REMARK   11  A    between atoms: _33  and  _34
REMARK   12  A    between atoms: _33  and  _36
REMARK   13  A    between atoms: _36  and  _37
REMARK   14  A    between atoms: _40  and  _41
REMARK   15  A    between atoms: _46  and  _48
REMARK   16  A    between atoms: _48  and  _49
REMARK   17  A    between atoms: _48  and  _51
REMARK   18  A    between atoms: _51  and  _52
REMARK   19  A    between atoms: _57  and  _59
REMARK   20  A    between atoms: _59  and  _60
REMARK   21  A    between atoms: _63  and  _65
REMARK   22  A    between atoms: _65  and  _66
REMARK   23  A    between atoms: _65  and  _68
REMARK   24  A    between atoms: _68  and  _69
REMARK   25  A    between atoms: _74  and  _76
REMARK   26  A    between atoms: _76  and  _77
REMARK   27  A    between atoms: _76  and  _79
REMARK   28  A    between atoms: _79  and  _80
REMARK   29  A    between atoms: _83  and  _85
REMARK   30  A    between atoms: _85  and  _86
REMARK   31  A    between atoms: _85  and  _88
REMARK   32  A    between atoms: _88  and  _89
REMARK   33  A    between atoms: _89  and  _90
REMARK   34  A    between atoms: _95  and  _97
REMARK   35  A    between atoms: _97  and  _98
REMARK   36  A    between atoms: _97  and  _100
REMARK   37  A    between atoms: _100  and  _101
REMARK   38  A    between atoms: _107  and  _109
REMARK   39  A    between atoms: _120  and  _123
REMARK   40  A    between atoms: _123  and  _124
REMARK   41  A    between atoms: _132  and  _133
REMARK   42  A    between atoms: _141  and  _143
REMARK   43  A    between atoms: _143  and  _144
REMARK   44  A    between atoms: _143  and  _146
REMARK   45  A    between atoms: _146  and  _147
REMARK   46  A    between atoms: _147  and  _148
REMARK   47  A    between atoms: _151  and  _153
REMARK   48  A    between atoms: _153  and  _154
REMARK   49  A    between atoms: _153  and  _156
REMARK   50  A    between atoms: _156  and  _157
REMARK   51  A    between atoms: _162  and  _164
REMARK   52  A    between atoms: _164  and  _165
REMARK   53  A    between atoms: _164  and  _167
REMARK   54  A    between atoms: _167  and  _168
REMARK   55  A    between atoms: _168  and  _169
REMARK   56  A    between atoms: _172  and  _174
REMARK   57  A    between atoms: _174  and  _175
REMARK   58  A    between atoms: _174  and  _177
REMARK   59  A    between atoms: _177  and  _178
REMARK   60  A    between atoms: _181  and  _183
REMARK   61  A    between atoms: _183  and  _184
REMARK   62  A    between atoms: _183  and  _186
REMARK   63  A    between atoms: _186  and  _187
REMARK   64  A    between atoms: _188  and  ZN_428
REMARK   65  A    between atoms: _192  and  _194
REMARK   66  A    between atoms: _194  and  _195
REMARK   67  A    between atoms: _194  and  _197
REMARK   68  A    between atoms: _197  and  _198
REMARK   69  A    between atoms: _201  and  _203
REMARK   70  A    between atoms: _203  and  _204
REMARK   71  A    between atoms: _203  and  _206
REMARK   72  A    between atoms: _209  and  _211
REMARK   73  A    between atoms: _211  and  _212
REMARK   74  A    between atoms: _211  and  _214
REMARK   75  A    between atoms: _214  and  _215
REMARK   76  A    between atoms: _220  and  _222
REMARK   77  A    between atoms: _222  and  _223
REMARK   78  A    between atoms: _222  and  _225
REMARK   79  A    between atoms: _225  and  _226
REMARK   80  A    between atoms: _232  and  _234
REMARK   81  A    between atoms: _234  and  _235
REMARK   82  A    between atoms: _237  and  _239
REMARK   83  A    between atoms: _239  and  _240
REMARK   84  A    between atoms: _239  and  _242
REMARK   85  A    between atoms: _242  and  _243
REMARK   86  A    between atoms: _243  and  _244
REMARK   87  A    between atoms: _244  and  _245
REMARK   88  A    between atoms: _245  and  _246
REMARK   89  A    between atoms: _250  and  _252
REMARK   90  A    between atoms: _252  and  _253
REMARK   91  A    between atoms: _252  and  _255
REMARK   92  A    between atoms: _258  and  _260
REMARK   93  A    between atoms: _260  and  _261
REMARK   94  A    between atoms: _260  and  _263
REMARK   95  A    between atoms: _263  and  _264
REMARK   96  A    between atoms: _264  and  _265
REMARK   97  A    between atoms: _270  and  _272
REMARK   98  A    between atoms: _272  and  _273
REMARK   99  A    between atoms: _272  and  _275
REMARK  100  A    between atoms: _275  and  _276
REMARK  101  A    between atoms: _279  and  _281
REMARK  102  A    between atoms: _281  and  _282
REMARK  103  A    between atoms: _285  and  _287
REMARK  104  A    between atoms: _287  and  _288
REMARK  105  A    between atoms: _287  and  _290
REMARK  106  A    between atoms: _293  and  _295
REMARK  107  A    between atoms: _295  and  _296
REMARK  108  A    between atoms: _295  and  _298
REMARK  109  A    between atoms: _298  and  _299
REMARK  110  A    between atoms: _302  and  _304
REMARK  111  A    between atoms: _304  and  _305
REMARK  112  A    between atoms: _304  and  _307
REMARK  113  A    between atoms: _307  and  _308
REMARK  114  A    between atoms: _310  and  _312
REMARK  115  A    between atoms: _312  and  _313
REMARK  116  A    between atoms: _312  and  _315
REMARK  117  A    between atoms: _315  and  _316
REMARK  118  A    between atoms: _319  and  _321
REMARK  119  A    between atoms: _321  and  _322
REMARK  120  A    between atoms: _321  and  _324
REMARK  121  A    between atoms: _324  and  _325
REMARK  122  A    between atoms: _328  and  _330
REMARK  123  A    between atoms: _330  and  _331
REMARK  124  A    between atoms: _330  and  _333
REMARK  125  A    between atoms: _333  and  _334
REMARK  126  A    between atoms: _338  and  _339
REMARK  127  A    between atoms: _345  and  _346
REMARK  128  A    between atoms: _351  and  _353
REMARK  129  A    between atoms: _353  and  _354
REMARK  130  A    between atoms: _353  and  _356
REMARK  131  A    between atoms: _356  and  _357
REMARK  132  A    between atoms: _360  and  _362
REMARK  133  A    between atoms: _362  and  _363
REMARK  134  A    between atoms: _362  and  _365
REMARK  135  A    between atoms: _365  and  _366
REMARK  136  A    between atoms: _369  and  _371
REMARK  137  A    between atoms: _371  and  _372
REMARK  138  A    between atoms: _371  and  _374
REMARK  139  A    between atoms: _376  and  _378
REMARK  140  A    between atoms: _378  and  _379
REMARK  141  A    between atoms: _378  and  _381
REMARK  142  A    between atoms: _384  and  _386
REMARK  143  A    between atoms: _386  and  _387
REMARK  144  A    between atoms: _386  and  _389
REMARK  145  A    between atoms: _389  and  _390
REMARK  146  A    between atoms: _400  and  _402
REMARK  147  A    between atoms: _402  and  _403
REMARK  148  A    between atoms: _402  and  _405
REMARK  149  A    between atoms: _405  and  _406
REMARK  150  A    between atoms: _411  and  _413
REMARK  151  A    between atoms: _413  and  _414
REMARK  152  A    between atoms: _413  and  _416
REMARK  153  A    between atoms: _416  and  _417
REMARK  154  A    between atoms: _417  and  _418
REMARK  155  A    between atoms: _418  and  _419
REMARK                            x       y       z     vdW  Elec       q    Type
REMARK                         _______ _______ _______ _____ _____    ______ ____
ROOT
ATOM      1  O   HOH     1       1.460  13.012  21.231  0.00  0.00    +0.000 OA
ENDROOT
TORSDOF 0
REMARK  Name = ../refined-set-2016/1bn1/1bn1_pocket.pdb
REMARK  155 active torsions:
REMARK  status: ('A' for Active; 'I' for Inactive)
REMARK    1  A    between atoms: _1  and  _3
REMARK    2  A    between atoms: _3  and  _4
REMARK    3  A    between atoms: _3  and  _6
REMARK    4  A    between atoms: _6  and  _7
REMARK    5  A    between atoms: _17  and  _19
REMARK    6  A    between atoms: _19  and  _20
REMARK    7  A    between atoms: _19  and  _22
REMARK    8  A    between atoms: _22  and  _23
REMARK    9  A    between atoms: _28  and  _29
REMARK   10  A    between atoms: _31  and  _33
REMARK   11  A    between atoms: _33  and  _34
REMARK   12  A    between atoms: _33  and  _36
REMARK   13  A    between atoms: _36  and  _37
REMARK   14  A    between atoms: _40  and  _41
REMARK   15  A    between atoms: _46  and  _48
REMARK   16  A    between atoms: _48  and  _49
REMARK   17  A    between atoms: _48  and  _51
REMARK   18  A    between atoms: _51  and  _52
REMARK   19  A    between atoms: _57  and  _59
REMARK   20  A    between atoms: _59  and  _60
REMARK   21  A    between atoms: _63  and  _65
REMARK   22  A    between atoms: _65  and  _66
REMARK   23  A    between atoms: _65  and  _68
REMARK   24  A    between atoms: _68  and  _69
REMARK   25  A    between atoms: _74  and  _76
REMARK   26  A    between atoms: _76  and  _77
REMARK   27  A    between atoms: _76  and  _79
REMARK   28  A    between atoms: _79  and  _80
REMARK   29  A    between atoms: _83  and  _85
REMARK   30  A    between atoms: _85  and  _86
REMARK   31  A    between atoms: _85  and  _88
REMARK   32  A    between atoms: _88  and  _89
REMARK   33  A    between atoms: _89  and  _90
REMARK   34  A    between atoms: _95  and  _97
REMARK   35  A    between atoms: _97  and  _98
REMARK   36  A    between atoms: _97  and  _100
REMARK   37  A    between atoms: _100  and  _101
REMARK   38  A    between atoms: _107  and  _109
REMARK   39  A    between atoms: _120  and  _123
REMARK   40  A    between atoms: _123  and  _124
REMARK   41  A    between atoms: _132  and  _133
REMARK   42  A    between atoms: _141  and  _143
REMARK   43  A    between atoms: _143  and  _144
REMARK   44  A    between atoms: _143  and  _146
REMARK   45  A    between atoms: _146  and  _147
REMARK   46  A    between atoms: _147  and  _148
REMARK   47  A    between atoms: _151  and  _153
REMARK   48  A    between atoms: _153  and  _154
REMARK   49  A    between atoms: _153  and  _156
REMARK   50  A    between atoms: _156  and  _157
REMARK   51  A    between atoms: _162  and  _164
REMARK   52  A    between atoms: _164  and  _165
REMARK   53  A    between atoms: _164  and  _167
REMARK   54  A    between atoms: _167  and  _168
REMARK   55  A    between atoms: _168  and  _169
REMARK   56  A    between atoms: _172  and  _174
REMARK   57  A    between atoms: _174  and  _175
REMARK   58  A    between atoms: _174  and  _177
REMARK   59  A    between atoms: _177  and  _178
REMARK   60  A    between atoms: _181  and  _183
REMARK   61  A    between atoms: _183  and  _184
REMARK   62  A    between atoms: _183  and  _186
REMARK   63  A    between atoms: _186  and  _187
REMARK   64  A    between atoms: _188  and  ZN_428
REMARK   65  A    between atoms: _192  and  _194
REMARK   66  A    between atoms: _194  and  _195
REMARK   67  A    between atoms: _194  and  _197
REMARK   68  A    between atoms: _197  and  _198
REMARK   69  A    between atoms: _201  and  _203
REMARK   70  A    between atoms: _203  and  _204
REMARK   71  A    between atoms: _203  and  _206
REMARK   72  A    between atoms: _209  and  _211
REMARK   73  A    between atoms: _211  and  _212
REMARK   74  A    between atoms: _211  and  _214
REMARK   75  A    between atoms: _214  and  _215
REMARK   76  A    between atoms: _220  and  _222
REMARK   77  A    between atoms: _222  and  _223
REMARK   78  A    between atoms: _222  and  _225
REMARK   79  A    between atoms: _225  and  _226
REMARK   80  A    between atoms: _232  and  _234
REMARK   81  A    between atoms: _234  and  _235
REMARK   82  A    between atoms: _237  and  _239
REMARK   83  A    between atoms: _239  and  _240
REMARK   84  A    between atoms: _239  and  _242
REMARK   85  A    between atoms: _242  and  _243
REMARK   86  A    between atoms: _243  and  _244
REMARK   87  A    between atoms: _244  and  _245
REMARK   88  A    between atoms: _245  and  _246
REMARK   89  A    between atoms: _250  and  _252
REMARK   90  A    between atoms: _252  and  _253
REMARK   91  A    between atoms: _252  and  _255
REMARK   92  A    between atoms: _258  and  _260
REMARK   93  A    between atoms: _260  and  _261
REMARK   94  A    between atoms: _260  and  _263
REMARK   95  A    between atoms: _263  and  _264
REMARK   96  A    between atoms: _264  and  _265
REMARK   97  A    between atoms: _270  and  _272
REMARK   98  A    between atoms: _272  and  _273
REMARK   99  A    between atoms: _272  and  _275
REMARK  100  A    between atoms: _275  and  _276
REMARK  101  A    between atoms: _279  and  _281
REMARK  102  A    between atoms: _281  and  _282
REMARK  103  A    between atoms: _285  and  _287
REMARK  104  A    between atoms: _287  and  _288
REMARK  105  A    between atoms: _287  and  _290
REMARK  106  A    between atoms: _293  and  _295
REMARK  107  A    between atoms: _295  and  _296
REMARK  108  A    between atoms: _295  and  _298
REMARK  109  A    between atoms: _298  and  _299
REMARK  110  A    between atoms: _302  and  _304
REMARK  111  A    between atoms: _304  and  _305
REMARK  112  A    between atoms: _304  and  _307
REMARK  113  A    between atoms: _307  and  _308
REMARK  114  A    between atoms: _310  and  _312
REMARK  115  A    between atoms: _312  and  _313
REMARK  116  A    between atoms: _312  and  _315
REMARK  117  A    between atoms: _315  and  _316
REMARK  118  A    between atoms: _319  and  _321
REMARK  119  A    between atoms: _321  and  _322
REMARK  120  A    between atoms: _321  and  _324
REMARK  121  A    between atoms: _324  and  _325
REMARK  122  A    between atoms: _328  and  _330
REMARK  123  A    between atoms: _330  and  _331
REMARK  124  A    between atoms: _330  and  _333
REMARK  125  A    between atoms: _333  and  _334
REMARK  126  A    between atoms: _338  and  _339
REMARK  127  A    between atoms: _345  and  _346
REMARK  128  A    between atoms: _351  and  _353
REMARK  129  A    between atoms: _353  and  _354
REMARK  130  A    between atoms: _353  and  _356
REMARK  131  A    between atoms: _356  and  _357
REMARK  132  A    between atoms: _360  and  _362
REMARK  133  A    between atoms: _362  and  _363
REMARK  134  A    between atoms: _362  and  _365
REMARK  135  A    between atoms: _365  and  _366
REMARK  136  A    between atoms: _369  and  _371
REMARK  137  A    between atoms: _371  and  _372
REMARK  138  A    between atoms: _371  and  _374
REMARK  139  A    between atoms: _376  and  _378
REMARK  140  A    between atoms: _378  and  _379
REMARK  141  A    between atoms: _378  and  _381
REMARK  142  A    between atoms: _384  and  _386
REMARK  143  A    between atoms: _386  and  _387
REMARK  144  A    between atoms: _386  and  _389
REMARK  145  A    between atoms: _389  and  _390
REMARK  146  A    between atoms: _400  and  _402
REMARK  147  A    between atoms: _402  and  _403
REMARK  148  A    between atoms: _402  and  _405
REMARK  149  A    between atoms: _405  and  _406
REMARK  150  A    between atoms: _411  and  _413
REMARK  151  A    between atoms: _413  and  _414
REMARK  152  A    between atoms: _413  and  _416
REMARK  153  A    between atoms: _416  and  _417
REMARK  154  A    between atoms: _417  and  _418
REMARK  155  A    between atoms: _418  and  _419
REMARK                            x       y       z     vdW  Elec       q    Type
REMARK                         _______ _______ _______ _____ _____    ______ ____
ROOT
ATOM      1  O   HOH     1      -3.834  13.626  11.483  0.00  0.00    +0.000 OA
ENDROOT
TORSDOF 0
REMARK  Name = ../refined-set-2016/1bn1/1bn1_pocket.pdb
REMARK  155 active torsions:
REMARK  status: ('A' for Active; 'I' for Inactive)
REMARK    1  A    between atoms: _1  and  _3
REMARK    2  A    between atoms: _3  and  _4
REMARK    3  A    between atoms: _3  and  _6
REMARK    4  A    between atoms: _6  and  _7
REMARK    5  A    between atoms: _17  and  _19
REMARK    6  A    between atoms: _19  and  _20
REMARK    7  A    between atoms: _19  and  _22
REMARK    8  A    between atoms: _22  and  _23
REMARK    9  A    between atoms: _28  and  _29
REMARK   10  A    between atoms: _31  and  _33
REMARK   11  A    between atoms: _33  and  _34
REMARK   12  A    between atoms: _33  and  _36
REMARK   13  A    between atoms: _36  and  _37
REMARK   14  A    between atoms: _40  and  _41
REMARK   15  A    between atoms: _46  and  _48
REMARK   16  A    between atoms: _48  and  _49
REMARK   17  A    between atoms: _48  and  _51
REMARK   18  A    between atoms: _51  and  _52
REMARK   19  A    between atoms: _57  and  _59
REMARK   20  A    between atoms: _59  and  _60
REMARK   21  A    between atoms: _63  and  _65
REMARK   22  A    between atoms: _65  and  _66
REMARK   23  A    between atoms: _65  and  _68
REMARK   24  A    between atoms: _68  and  _69
REMARK   25  A    between atoms: _74  and  _76
REMARK   26  A    between atoms: _76  and  _77
REMARK   27  A    between atoms: _76  and  _79
REMARK   28  A    between atoms: _79  and  _80
REMARK   29  A    between atoms: _83  and  _85
REMARK   30  A    between atoms: _85  and  _86
REMARK   31  A    between atoms: _85  and  _88
REMARK   32  A    between atoms: _88  and  _89
REMARK   33  A    between atoms: _89  and  _90
REMARK   34  A    between atoms: _95  and  _97
REMARK   35  A    between atoms: _97  and  _98
REMARK   36  A    between atoms: _97  and  _100
REMARK   37  A    between atoms: _100  and  _101
REMARK   38  A    between atoms: _107  and  _109
REMARK   39  A    between atoms: _120  and  _123
REMARK   40  A    between atoms: _123  and  _124
REMARK   41  A    between atoms: _132  and  _133
REMARK   42  A    between atoms: _141  and  _143
REMARK   43  A    between atoms: _143  and  _144
REMARK   44  A    between atoms: _143  and  _146
REMARK   45  A    between atoms: _146  and  _147
REMARK   46  A    between atoms: _147  and  _148
REMARK   47  A    between atoms: _151  and  _153
REMARK   48  A    between atoms: _153  and  _154
REMARK   49  A    between atoms: _153  and  _156
REMARK   50  A    between atoms: _156  and  _157
REMARK   51  A    between atoms: _162  and  _164
REMARK   52  A    between atoms: _164  and  _165
REMARK   53  A    between atoms: _164  and  _167
REMARK   54  A    between atoms: _167  and  _168
REMARK   55  A    between atoms: _168  and  _169
REMARK   56  A    between atoms: _172  and  _174
REMARK   57  A    between atoms: _174  and  _175
REMARK   58  A    between atoms: _174  and  _177
REMARK   59  A    between atoms: _177  and  _178
REMARK   60  A    between atoms: _181  and  _183
REMARK   61  A    between atoms: _183  and  _184
REMARK   62  A    between atoms: _183  and  _186
REMARK   63  A    between atoms: _186  and  _187
REMARK   64  A    between atoms: _188  and  ZN_428
REMARK   65  A    between atoms: _192  and  _194
REMARK   66  A    between atoms: _194  and  _195
REMARK   67  A    between atoms: _194  and  _197
REMARK   68  A    between atoms: _197  and  _198
REMARK   69  A    between atoms: _201  and  _203
REMARK   70  A    between atoms: _203  and  _204
REMARK   71  A    between atoms: _203  and  _206
REMARK   72  A    between atoms: _209  and  _211
REMARK   73  A    between atoms: _211  and  _212
REMARK   74  A    between atoms: _211  and  _214
REMARK   75  A    between atoms: _214  and  _215
REMARK   76  A    between atoms: _220  and  _222
REMARK   77  A    between atoms: _222  and  _223
REMARK   78  A    between atoms: _222  and  _225
REMARK   79  A    between atoms: _225  and  _226
REMARK   80  A    between atoms: _232  and  _234
REMARK   81  A    between atoms: _234  and  _235
REMARK   82  A    between atoms: _237  and  _239
REMARK   83  A    between atoms: _239  and  _240
REMARK   84  A    between atoms: _239  and  _242
REMARK   85  A    between atoms: _242  and  _243
REMARK   86  A    between atoms: _243  and  _244
REMARK   87  A    between atoms: _244  and  _245
REMARK   88  A    between atoms: _245  and  _246
REMARK   89  A    between atoms: _250  and  _252
REMARK   90  A    between atoms: _252  and  _253
REMARK   91  A    between atoms: _252  and  _255
REMARK   92  A    between atoms: _258  and  _260
REMARK   93  A    between atoms: _260  and  _261
REMARK   94  A    between atoms: _260  and  _263
REMARK   95  A    between atoms: _263  and  _264
REMARK   96  A    between atoms: _264  and  _265
REMARK   97  A    between atoms: _270  and  _272
REMARK   98  A    between atoms: _272  and  _273
REMARK   99  A    between atoms: _272  and  _275
REMARK  100  A    between atoms: _275  and  _276
REMARK  101  A    between atoms: _279  and  _281
REMARK  102  A    between atoms: _281  and  _282
REMARK  103  A    between atoms: _285  and  _287
REMARK  104  A    between atoms: _287  and  _288
REMARK  105  A    between atoms: _287  and  _290
REMARK  106  A    between atoms: _293  and  _295
REMARK  107  A    between atoms: _295  and  _296
REMARK  108  A    between atoms: _295  and  _298
REMARK  109  A    between atoms: _298  and  _299
REMARK  110  A    between atoms: _302  and  _304
REMARK  111  A    between atoms: _304  and  _305
REMARK  112  A    between atoms: _304  and  _307
REMARK  113  A    between atoms: _307  and  _308
REMARK  114  A    between atoms: _310  and  _312
REMARK  115  A    between atoms: _312  and  _313
REMARK  116  A    between atoms: _312  and  _315
REMARK  117  A    between atoms: _315  and  _316
REMARK  118  A    between atoms: _319  and  _321
REMARK  119  A    between atoms: _321  and  _322
REMARK  120  A    between atoms: _321  and  _324
REMARK  121  A    between atoms: _324  and  _325
REMARK  122  A    between atoms: _328  and  _330
REMARK  123  A    between atoms: _330  and  _331
REMARK  124  A    between atoms: _330  and  _333
REMARK  125  A    between atoms: _333  and  _334
REMARK  126  A    between atoms: _338  and  _339
REMARK  127  A    between atoms: _345  and  _346
REMARK  128  A    between atoms: _351  and  _353
REMARK  129  A    between atoms: _353  and  _354
REMARK  130  A    between atoms: _353  and  _356
REMARK  131  A    between atoms: _356  and  _357
REMARK  132  A    between atoms: _360  and  _362
REMARK  133  A    between atoms: _362  and  _363
REMARK  134  A    between atoms: _362  and  _365
REMARK  135  A    between atoms: _365  and  _366
REMARK  136  A    between atoms: _369  and  _371
REMARK  137  A    between atoms: _371  and  _372
REMARK  138  A    between atoms: _371  and  _374
REMARK  139  A    between atoms: _376  and  _378
REMARK  140  A    between atoms: _378  and  _379
REMARK  141  A    between atoms: _378  and  _381
REMARK  142  A    between atoms: _384  and  _386
REMARK  143  A    between atoms: _386  and  _387
REMARK  144  A    between atoms: _386  and  _389
REMARK  145  A    between atoms: _389  and  _390
REMARK  146  A    between atoms: _400  and  _402
REMARK  147  A    between atoms: _402  and  _403
REMARK  148  A    between atoms: _402  and  _405
REMARK  149  A    between atoms: _405  and  _406
REMARK  150  A    between atoms: _411  and  _413
REMARK  151  A    between atoms: _413  and  _414
REMARK  152  A    between atoms: _413  and  _416
REMARK  153  A    between atoms: _416  and  _417
REMARK  154  A    between atoms: _417  and  _418
REMARK  155  A    between atoms: _418  and  _419
REMARK                            x       y       z     vdW  Elec       q    Type
REMARK                         _______ _______ _______ _____ _____    ______ ____
ROOT
ATOM      1  O   HOH     1      -2.810  -3.334  11.617  0.00  0.00    +0.000 OA
ENDROOT
TORSDOF 0
REMARK  Name = ../refined-set-2016/1bn1/1bn1_pocket.pdb
REMARK  155 active torsions:
REMARK  status: ('A' for Active; 'I' for Inactive)
REMARK    1  A    between atoms: _1  and  _3
REMARK    2  A    between atoms: _3  and  _4
REMARK    3  A    between atoms: _3  and  _6
REMARK    4  A    between atoms: _6  and  _7
REMARK    5  A    between atoms: _17  and  _19
REMARK    6  A    between atoms: _19  and  _20
REMARK    7  A    between atoms: _19  and  _22
REMARK    8  A    between atoms: _22  and  _23
REMARK    9  A    between atoms: _28  and  _29
REMARK   10  A    between atoms: _31  and  _33
REMARK   11  A    between atoms: _33  and  _34
REMARK   12  A    between atoms: _33  and  _36
REMARK   13  A    between atoms: _36  and  _37
REMARK   14  A    between atoms: _40  and  _41
REMARK   15  A    between atoms: _46  and  _48
REMARK   16  A    between atoms: _48  and  _49
REMARK   17  A    between atoms: _48  and  _51
REMARK   18  A    between atoms: _51  and  _52
REMARK   19  A    between atoms: _57  and  _59
REMARK   20  A    between atoms: _59  and  _60
REMARK   21  A    between atoms: _63  and  _65
REMARK   22  A    between atoms: _65  and  _66
REMARK   23  A    between atoms: _65  and  _68
REMARK   24  A    between atoms: _68  and  _69
REMARK   25  A    between atoms: _74  and  _76
REMARK   26  A    between atoms: _76  and  _77
REMARK   27  A    between atoms: _76  and  _79
REMARK   28  A    between atoms: _79  and  _80
REMARK   29  A    between atoms: _83  and  _85
REMARK   30  A    between atoms: _85  and  _86
REMARK   31  A    between atoms: _85  and  _88
REMARK   32  A    between atoms: _88  and  _89
REMARK   33  A    between atoms: _89  and  _90
REMARK   34  A    between atoms: _95  and  _97
REMARK   35  A    between atoms: _97  and  _98
REMARK   36  A    between atoms: _97  and  _100
REMARK   37  A    between atoms: _100  and  _101
REMARK   38  A    between atoms: _107  and  _109
REMARK   39  A    between atoms: _120  and  _123
REMARK   40  A    between atoms: _123  and  _124
REMARK   41  A    between atoms: _132  and  _133
REMARK   42  A    between atoms: _141  and  _143
REMARK   43  A    between atoms: _143  and  _144
REMARK   44  A    between atoms: _143  and  _146
REMARK   45  A    between atoms: _146  and  _147
REMARK   46  A    between atoms: _147  and  _148
REMARK   47  A    between atoms: _151  and  _153
REMARK   48  A    between atoms: _153  and  _154
REMARK   49  A    between atoms: _153  and  _156
REMARK   50  A    between atoms: _156  and  _157
REMARK   51  A    between atoms: _162  and  _164
REMARK   52  A    between atoms: _164  and  _165
REMARK   53  A    between atoms: _164  and  _167
REMARK   54  A    between atoms: _167  and  _168
REMARK   55  A    between atoms: _168  and  _169
REMARK   56  A    between atoms: _172  and  _174
REMARK   57  A    between atoms: _174  and  _175
REMARK   58  A    between atoms: _174  and  _177
REMARK   59  A    between atoms: _177  and  _178
REMARK   60  A    between atoms: _181  and  _183
REMARK   61  A    between atoms: _183  and  _184
REMARK   62  A    between atoms: _183  and  _186
REMARK   63  A    between atoms: _186  and  _187
REMARK   64  A    between atoms: _188  and  ZN_428
REMARK   65  A    between atoms: _192  and  _194
REMARK   66  A    between atoms: _194  and  _195
REMARK   67  A    between atoms: _194  and  _197
REMARK   68  A    between atoms: _197  and  _198
REMARK   69  A    between atoms: _201  and  _203
REMARK   70  A    between atoms: _203  and  _204
REMARK   71  A    between atoms: _203  and  _206
REMARK   72  A    between atoms: _209  and  _211
REMARK   73  A    between atoms: _211  and  _212
REMARK   74  A    between atoms: _211  and  _214
REMARK   75  A    between atoms: _214  and  _215
REMARK   76  A    between atoms: _220  and  _222
REMARK   77  A    between atoms: _222  and  _223
REMARK   78  A    between atoms: _222  and  _225
REMARK   79  A    between atoms: _225  and  _226
REMARK   80  A    between atoms: _232  and  _234
REMARK   81  A    between atoms: _234  and  _235
REMARK   82  A    between atoms: _237  and  _239
REMARK   83  A    between atoms: _239  and  _240
REMARK   84  A    between atoms: _239  and  _242
REMARK   85  A    between atoms: _242  and  _243
REMARK   86  A    between atoms: _243  and  _244
REMARK   87  A    between atoms: _244  and  _245
REMARK   88  A    between atoms: _245  and  _246
REMARK   89  A    between atoms: _250  and  _252
REMARK   90  A    between atoms: _252  and  _253
REMARK   91  A    between atoms: _252  and  _255
REMARK   92  A    between atoms: _258  and  _260
REMARK   93  A    between atoms: _260  and  _261
REMARK   94  A    between atoms: _260  and  _263
REMARK   95  A    between atoms: _263  and  _264
REMARK   96  A    between atoms: _264  and  _265
REMARK   97  A    between atoms: _270  and  _272
REMARK   98  A    between atoms: _272  and  _273
REMARK   99  A    between atoms: _272  and  _275
REMARK  100  A    between atoms: _275  and  _276
REMARK  101  A    between atoms: _279  and  _281
REMARK  102  A    between atoms: _281  and  _282
REMARK  103  A    between atoms: _285  and  _287
REMARK  104  A    between atoms: _287  and  _288
REMARK  105  A    between atoms: _287  and  _290
REMARK  106  A    between atoms: _293  and  _295
REMARK  107  A    between atoms: _295  and  _296
REMARK  108  A    between atoms: _295  and  _298
REMARK  109  A    between atoms: _298  and  _299
REMARK  110  A    between atoms: _302  and  _304
REMARK  111  A    between atoms: _304  and  _305
REMARK  112  A    between atoms: _304  and  _307
REMARK  113  A    between atoms: _307  and  _308
REMARK  114  A    between atoms: _310  and  _312
REMARK  115  A    between atoms: _312  and  _313
REMARK  116  A    between atoms: _312  and  _315
REMARK  117  A    between atoms: _315  and  _316
REMARK  118  A    between atoms: _319  and  _321
REMARK  119  A    between atoms: _321  and  _322
REMARK  120  A    between atoms: _321  and  _324
REMARK  121  A    between atoms: _324  and  _325
REMARK  122  A    between atoms: _328  and  _330
REMARK  123  A    between atoms: _330  and  _331
REMARK  124  A    between atoms: _330  and  _333
REMARK  125  A    between atoms: _333  and  _334
REMARK  126  A    between atoms: _338  and  _339
REMARK  127  A    between atoms: _345  and  _346
REMARK  128  A    between atoms: _351  and  _353
REMARK  129  A    between atoms: _353  and  _354
REMARK  130  A    between atoms: _353  and  _356
REMARK  131  A    between atoms: _356  and  _357
REMARK  132  A    between atoms: _360  and  _362
REMARK  133  A    between atoms: _362  and  _363
REMARK  134  A    between atoms: _362  and  _365
REMARK  135  A    between atoms: _365  and  _366
REMARK  136  A    between atoms: _369  and  _371
REMARK  137  A    between atoms: _371  and  _372
REMARK  138  A    between atoms: _371  and  _374
REMARK  139  A    between atoms: _376  and  _378
REMARK  140  A    between atoms: _378  and  _379
REMARK  141  A    between atoms: _378  and  _381
REMARK  142  A    between atoms: _384  and  _386
REMARK  143  A    between atoms: _386  and  _387
REMARK  144  A    between atoms: _386  and  _389
REMARK  145  A    between atoms: _389  and  _390
REMARK  146  A    between atoms: _400  and  _402
REMARK  147  A    between atoms: _402  and  _403
REMARK  148  A    between atoms: _402  and  _405
REMARK  149  A    between atoms: _405  and  _406
REMARK  150  A    between atoms: _411  and  _413
REMARK  151  A    between atoms: _413  and  _414
REMARK  152  A    between atoms: _413  and  _416
REMARK  153  A    between atoms: _416  and  _417
REMARK  154  A    between atoms: _417  and  _418
REMARK  155  A    between atoms: _418  and  _419
REMARK                            x       y       z     vdW  Elec       q    Type
REMARK                         _______ _______ _______ _____ _____    ______ ____
ROOT
ATOM      1  O   HOH     1      -3.886  16.481  12.039  0.00  0.00    +0.000 OA
ENDROOT
TORSDOF 0
