REMARK  Name = ../refined-set-2016/2bza/2bza_pocket.pdb
REMARK  117 active torsions:
REMARK  status: ('A' for Active; 'I' for Inactive)
REMARK    1  A    between atoms: _1  and  _5
REMARK    2  A    between atoms: _5  and  _6
REMARK    3  A    between atoms: _5  and  _8
REMARK    4  A    between atoms: _8  and  _9
REMARK    5  A    between atoms: _12  and  _14
REMARK    6  A    between atoms: _14  and  _15
REMARK    7  A    between atoms: _14  and  _17
REMARK    8  A    between atoms: _20  and  _22
REMARK    9  A    between atoms: _22  and  _23
REMARK   10  A    between atoms: _22  and  _25
REMARK   11  A    between atoms: _25  and  _26
REMARK   12  A    between atoms: _31  and  _33
REMARK   13  A    between atoms: _33  and  _34
REMARK   14  A    between atoms: _33  and  _36
REMARK   15  A    between atoms: _36  and  _37
REMARK   16  A    between atoms: _40  and  _42
REMARK   17  A    between atoms: _42  and  _43
REMARK   18  A    between atoms: _42  and  _45
REMARK   19  A    between atoms: _45  and  _46
REMARK   20  A    between atoms: _51  and  _53
REMARK   21  A    between atoms: _53  and  _54
REMARK   22  A    between atoms: _53  and  _56
REMARK   23  A    between atoms: _56  and  _57
REMARK   24  A    between atoms: _62  and  _63
REMARK   25  A    between atoms: _65  and  _67
REMARK   26  A    between atoms: _67  and  _68
REMARK   27  A    between atoms: _71  and  _73
REMARK   28  A    between atoms: _73  and  _74
REMARK   29  A    between atoms: _73  and  _76
REMARK   30  A    between atoms: _76  and  _77
REMARK   31  A    between atoms: _77  and  _78
REMARK   32  A    between atoms: _78  and  _79
REMARK   33  A    between atoms: _79  and  _80
REMARK   34  A    between atoms: _84  and  _86
REMARK   35  A    between atoms: _86  and  _87
REMARK   36  A    between atoms: _86  and  _89
REMARK   37  A    between atoms: _89  and  _90
REMARK   38  A    between atoms: _93  and  _95
REMARK   39  A    between atoms: _95  and  _96
REMARK   40  A    between atoms: _95  and  _98
REMARK   41  A    between atoms: _98  and  _99
REMARK   42  A    between atoms: _101  and  _103
REMARK   43  A    between atoms: _103  and  _104
REMARK   44  A    between atoms: _103  and  _106
REMARK   45  A    between atoms: _106  and  _107
REMARK   46  A    between atoms: _107  and  _217
REMARK   47  A    between atoms: _108  and  _110
REMARK   48  A    between atoms: _110  and  _111
REMARK   49  A    between atoms: _110  and  _113
REMARK   50  A    between atoms: _113  and  _114
REMARK   51  A    between atoms: _114  and  _115
REMARK   52  A    between atoms: _120  and  _122
REMARK   53  A    between atoms: _122  and  _123
REMARK   54  A    between atoms: _125  and  _127
REMARK   55  A    between atoms: _127  and  _128
REMARK   56  A    between atoms: _127  and  _130
REMARK   57  A    between atoms: _130  and  _131
REMARK   58  A    between atoms: _134  and  _136
REMARK   59  A    between atoms: _136  and  _137
REMARK   60  A    between atoms: _136  and  _139
REMARK   61  A    between atoms: _139  and  _140
REMARK   62  A    between atoms: _142  and  _144
REMARK   63  A    between atoms: _144  and  _145
REMARK   64  A    between atoms: _147  and  _149
REMARK   65  A    between atoms: _149  and  _150
REMARK   66  A    between atoms: _152  and  _154
REMARK   67  A    between atoms: _154  and  _155
REMARK   68  A    between atoms: _154  and  _157
REMARK   69  A    between atoms: _157  and  _158
REMARK   70  A    between atoms: _161  and  _163
REMARK   71  A    between atoms: _163  and  _164
REMARK   72  A    between atoms: _163  and  _166
REMARK   73  A    between atoms: _169  and  _171
REMARK   74  A    between atoms: _171  and  _172
REMARK   75  A    between atoms: _171  and  _174
REMARK   76  A    between atoms: _174  and  _175
REMARK   77  A    between atoms: _177  and  _179
REMARK   78  A    between atoms: _179  and  _180
REMARK   79  A    between atoms: _179  and  _182
REMARK   80  A    between atoms: _182  and  _183
REMARK   81  A    between atoms: _193  and  _195
REMARK   82  A    between atoms: _195  and  _196
REMARK   83  A    between atoms: _198  and  _200
REMARK   84  A    between atoms: _200  and  _201
REMARK   85  A    between atoms: _200  and  _203
REMARK   86  A    between atoms: _203  and  _204
REMARK   87  A    between atoms: _206  and  _208
REMARK   88  A    between atoms: _208  and  _209
REMARK   89  A    between atoms: _211  and  _213
REMARK   90  A    between atoms: _213  and  _214
REMARK   91  A    between atoms: _213  and  _216
REMARK   92  A    between atoms: _216  and  _217
REMARK   93  A    between atoms: _218  and  _220
REMARK   94  A    between atoms: _220  and  _221
REMARK   95  A    between atoms: _224  and  _226
REMARK   96  A    between atoms: _226  and  _227
REMARK   97  A    between atoms: _226  and  _229
REMARK   98  A    between atoms: _229  and  _230
REMARK   99  A    between atoms: _230  and  _231
REMARK  100  A    between atoms: _236  and  _238
REMARK  101  A    between atoms: _238  and  _239
REMARK  102  A    between atoms: _238  and  _241
REMARK  103  A    between atoms: _241  and  _242
REMARK  104  A    between atoms: _242  and  _243
REMARK  105  A    between atoms: _243  and  _244
REMARK  106  A    between atoms: _244  and  _245
REMARK  107  A    between atoms: _250  and  _251
REMARK  108  A    between atoms: _256  and  _258
REMARK  109  A    between atoms: _258  and  _259
REMARK  110  A    between atoms: _261  and  _263
REMARK  111  A    between atoms: _263  and  _264
REMARK  112  A    between atoms: _263  and  _266
REMARK  113  A    between atoms: _269  and  _271
REMARK  114  A    between atoms: _271  and  _272
REMARK  115  A    between atoms: _271  and  _274
REMARK  116  A    between atoms: _274  and  _275
REMARK  117  A    between atoms: _280  and  _281
REMARK                            x       y       z     vdW  Elec       q    Type
REMARK                         _______ _______ _______ _____ _____    ______ ____
ROOT
ATOM      1  C   ILE A   1     -10.800  37.259  42.580  0.00  0.00    +0.202 C 
ATOM      2  O   ILE A   1     -10.362  38.267  43.137  0.00  0.00    -0.277 OA
ATOM      3  N   VAL A   2     -10.037  36.445  41.852  0.00  0.00    -0.301 N 
ATOM      4  H   VAL A   2     -10.462  35.595  41.429  0.00  0.00    +0.150 HD
ENDROOT
BRANCH   1   5
ATOM      5  CA  ILE A   1     -12.276  36.880  42.713  0.00  0.00    +0.013 C 
BRANCH   5   6
ATOM      6  N   ILE A   1     -12.647  36.802  44.156  0.00  0.00    +0.387 N 
ATOM      7  H1  ILE A   1     -12.062  36.081  44.625  0.00  0.00    -0.089 HD
ATOM      8  H2  ILE A   1     -12.486  37.726  44.605  0.00  0.00    -0.089 HD
ATOM      9  H3  ILE A   1     -13.651  36.544  44.241  0.00  0.00    -0.089 HD
ENDBRANCH   5   6
BRANCH   5  10
ATOM     10  CB  ILE A   1     -13.123  37.947  41.974  0.00  0.00    -0.011 C 
ATOM     11  CG2 ILE A   1     -12.709  38.022  40.504  0.00  0.00    -0.002 C 
BRANCH  10  12
ATOM     12  CG1 ILE A   1     -14.615  37.612  42.082  0.00  0.00    -0.002 C 
ATOM     13  CD1 ILE A   1     -15.023  36.319  41.397  0.00  0.00    -0.000 C 
ENDBRANCH  10  12
ENDBRANCH   5  10
ENDBRANCH   1   5
BRANCH   3  14
ATOM     14  CA  VAL A   2      -8.617  36.717  41.633  0.00  0.00    +0.137 C 
BRANCH  14  15
ATOM     15  CB  VAL A   2      -7.753  35.445  41.788  0.00  0.00    +0.026 C 
ATOM     16  CG2 VAL A   2      -7.890  34.883  43.198  0.00  0.00    +0.002 C 
ATOM     17  CG1 VAL A   2      -6.294  35.774  41.493  0.00  0.00    +0.002 C 
ENDBRANCH  14  15
BRANCH  14  18
ATOM     18  C   VAL A   2      -8.408  37.259  40.222  0.00  0.00    +0.227 C 
ATOM     19  O   VAL A   2      -8.911  36.690  39.257  0.00  0.00    -0.286 OA
ENDBRANCH  14  18
ENDBRANCH   3  14
TORSDOF 7
REMARK  Name = ../refined-set-2016/2bza/2bza_pocket.pdb
REMARK  117 active torsions:
REMARK  status: ('A' for Active; 'I' for Inactive)
REMARK    1  A    between atoms: _1  and  _5
REMARK    2  A    between atoms: _5  and  _6
REMARK    3  A    between atoms: _5  and  _8
REMARK    4  A    between atoms: _8  and  _9
REMARK    5  A    between atoms: _12  and  _14
REMARK    6  A    between atoms: _14  and  _15
REMARK    7  A    between atoms: _14  and  _17
REMARK    8  A    between atoms: _20  and  _22
REMARK    9  A    between atoms: _22  and  _23
REMARK   10  A    between atoms: _22  and  _25
REMARK   11  A    between atoms: _25  and  _26
REMARK   12  A    between atoms: _31  and  _33
REMARK   13  A    between atoms: _33  and  _34
REMARK   14  A    between atoms: _33  and  _36
REMARK   15  A    between atoms: _36  and  _37
REMARK   16  A    between atoms: _40  and  _42
REMARK   17  A    between atoms: _42  and  _43
REMARK   18  A    between atoms: _42  and  _45
REMARK   19  A    between atoms: _45  and  _46
REMARK   20  A    between atoms: _51  and  _53
REMARK   21  A    between atoms: _53  and  _54
REMARK   22  A    between atoms: _53  and  _56
REMARK   23  A    between atoms: _56  and  _57
REMARK   24  A    between atoms: _62  and  _63
REMARK   25  A    between atoms: _65  and  _67
REMARK   26  A    between atoms: _67  and  _68
REMARK   27  A    between atoms: _71  and  _73
REMARK   28  A    between atoms: _73  and  _74
REMARK   29  A    between atoms: _73  and  _76
REMARK   30  A    between atoms: _76  and  _77
REMARK   31  A    between atoms: _77  and  _78
REMARK   32  A    between atoms: _78  and  _79
REMARK   33  A    between atoms: _79  and  _80
REMARK   34  A    between atoms: _84  and  _86
REMARK   35  A    between atoms: _86  and  _87
REMARK   36  A    between atoms: _86  and  _89
REMARK   37  A    between atoms: _89  and  _90
REMARK   38  A    between atoms: _93  and  _95
REMARK   39  A    between atoms: _95  and  _96
REMARK   40  A    between atoms: _95  and  _98
REMARK   41  A    between atoms: _98  and  _99
REMARK   42  A    between atoms: _101  and  _103
REMARK   43  A    between atoms: _103  and  _104
REMARK   44  A    between atoms: _103  and  _106
REMARK   45  A    between atoms: _106  and  _107
REMARK   46  A    between atoms: _107  and  _217
REMARK   47  A    between atoms: _108  and  _110
REMARK   48  A    between atoms: _110  and  _111
REMARK   49  A    between atoms: _110  and  _113
REMARK   50  A    between atoms: _113  and  _114
REMARK   51  A    between atoms: _114  and  _115
REMARK   52  A    between atoms: _120  and  _122
REMARK   53  A    between atoms: _122  and  _123
REMARK   54  A    between atoms: _125  and  _127
REMARK   55  A    between atoms: _127  and  _128
REMARK   56  A    between atoms: _127  and  _130
REMARK   57  A    between atoms: _130  and  _131
REMARK   58  A    between atoms: _134  and  _136
REMARK   59  A    between atoms: _136  and  _137
REMARK   60  A    between atoms: _136  and  _139
REMARK   61  A    between atoms: _139  and  _140
REMARK   62  A    between atoms: _142  and  _144
REMARK   63  A    between atoms: _144  and  _145
REMARK   64  A    between atoms: _147  and  _149
REMARK   65  A    between atoms: _149  and  _150
REMARK   66  A    between atoms: _152  and  _154
REMARK   67  A    between atoms: _154  and  _155
REMARK   68  A    between atoms: _154  and  _157
REMARK   69  A    between atoms: _157  and  _158
REMARK   70  A    between atoms: _161  and  _163
REMARK   71  A    between atoms: _163  and  _164
REMARK   72  A    between atoms: _163  and  _166
REMARK   73  A    between atoms: _169  and  _171
REMARK   74  A    between atoms: _171  and  _172
REMARK   75  A    between atoms: _171  and  _174
REMARK   76  A    between atoms: _174  and  _175
REMARK   77  A    between atoms: _177  and  _179
REMARK   78  A    between atoms: _179  and  _180
REMARK   79  A    between atoms: _179  and  _182
REMARK   80  A    between atoms: _182  and  _183
REMARK   81  A    between atoms: _193  and  _195
REMARK   82  A    between atoms: _195  and  _196
REMARK   83  A    between atoms: _198  and  _200
REMARK   84  A    between atoms: _200  and  _201
REMARK   85  A    between atoms: _200  and  _203
REMARK   86  A    between atoms: _203  and  _204
REMARK   87  A    between atoms: _206  and  _208
REMARK   88  A    between atoms: _208  and  _209
REMARK   89  A    between atoms: _211  and  _213
REMARK   90  A    between atoms: _213  and  _214
REMARK   91  A    between atoms: _213  and  _216
REMARK   92  A    between atoms: _216  and  _217
REMARK   93  A    between atoms: _218  and  _220
REMARK   94  A    between atoms: _220  and  _221
REMARK   95  A    between atoms: _224  and  _226
REMARK   96  A    between atoms: _226  and  _227
REMARK   97  A    between atoms: _226  and  _229
REMARK   98  A    between atoms: _229  and  _230
REMARK   99  A    between atoms: _230  and  _231
REMARK  100  A    between atoms: _236  and  _238
REMARK  101  A    between atoms: _238  and  _239
REMARK  102  A    between atoms: _238  and  _241
REMARK  103  A    between atoms: _241  and  _242
REMARK  104  A    between atoms: _242  and  _243
REMARK  105  A    between atoms: _243  and  _244
REMARK  106  A    between atoms: _244  and  _245
REMARK  107  A    between atoms: _250  and  _251
REMARK  108  A    between atoms: _256  and  _258
REMARK  109  A    between atoms: _258  and  _259
REMARK  110  A    between atoms: _261  and  _263
REMARK  111  A    between atoms: _263  and  _264
REMARK  112  A    between atoms: _263  and  _266
REMARK  113  A    between atoms: _269  and  _271
REMARK  114  A    between atoms: _271  and  _272
REMARK  115  A    between atoms: _271  and  _274
REMARK  116  A    between atoms: _274  and  _275
REMARK  117  A    between atoms: _280  and  _281
REMARK                            x       y       z     vdW  Elec       q    Type
REMARK                         _______ _______ _______ _____ _____    ______ ____
ROOT
ATOM      1  CB  HIS A   1     -20.821  23.302  49.851  0.00  0.00    +0.072 C 
ENDROOT
BRANCH   1   2
ATOM      2  CG  HIS A   1     -20.115  24.399  49.113  0.00  0.00    +0.082 A 
ATOM      3  CD2 HIS A   1     -19.211  25.314  49.538  0.00  0.00    +0.115 A 
ATOM      4  NE2 HIS A   1     -18.826  26.047  48.441  0.00  0.00    -0.221 NA
ATOM      5  CE1 HIS A   1     -19.476  25.602  47.379  0.00  0.00    +0.199 A 
ATOM      6  ND1 HIS A   1     -20.263  24.609  47.757  0.00  0.00    -0.227 NA
ENDBRANCH   1   2
BRANCH   1   7
ATOM      7  CA  HIS A   1     -22.210  23.684  50.407  0.00  0.00    +0.139 C 
BRANCH   7   8
ATOM      8  N   HIS A   1     -23.231  23.738  49.362  0.00  0.00    -0.239 NA
ATOM      9  H   HIS A   1     -22.963  23.828  48.361  0.00  0.00    +0.142 HD
ENDBRANCH   7   8
BRANCH   7  10
ATOM     10  C   HIS A   1     -22.118  24.971  51.229  0.00  0.00    +0.224 C 
ATOM     11  O   HIS A   1     -21.316  25.066  52.157  0.00  0.00    -0.287 OA
ENDBRANCH   7  10
ENDBRANCH   1   7
TORSDOF 4
REMARK  Name = ../refined-set-2016/2bza/2bza_pocket.pdb
REMARK  117 active torsions:
REMARK  status: ('A' for Active; 'I' for Inactive)
REMARK    1  A    between atoms: _1  and  _5
REMARK    2  A    between atoms: _5  and  _6
REMARK    3  A    between atoms: _5  and  _8
REMARK    4  A    between atoms: _8  and  _9
REMARK    5  A    between atoms: _12  and  _14
REMARK    6  A    between atoms: _14  and  _15
REMARK    7  A    between atoms: _14  and  _17
REMARK    8  A    between atoms: _20  and  _22
REMARK    9  A    between atoms: _22  and  _23
REMARK   10  A    between atoms: _22  and  _25
REMARK   11  A    between atoms: _25  and  _26
REMARK   12  A    between atoms: _31  and  _33
REMARK   13  A    between atoms: _33  and  _34
REMARK   14  A    between atoms: _33  and  _36
REMARK   15  A    between atoms: _36  and  _37
REMARK   16  A    between atoms: _40  and  _42
REMARK   17  A    between atoms: _42  and  _43
REMARK   18  A    between atoms: _42  and  _45
REMARK   19  A    between atoms: _45  and  _46
REMARK   20  A    between atoms: _51  and  _53
REMARK   21  A    between atoms: _53  and  _54
REMARK   22  A    between atoms: _53  and  _56
REMARK   23  A    between atoms: _56  and  _57
REMARK   24  A    between atoms: _62  and  _63
REMARK   25  A    between atoms: _65  and  _67
REMARK   26  A    between atoms: _67  and  _68
REMARK   27  A    between atoms: _71  and  _73
REMARK   28  A    between atoms: _73  and  _74
REMARK   29  A    between atoms: _73  and  _76
REMARK   30  A    between atoms: _76  and  _77
REMARK   31  A    between atoms: _77  and  _78
REMARK   32  A    between atoms: _78  and  _79
REMARK   33  A    between atoms: _79  and  _80
REMARK   34  A    between atoms: _84  and  _86
REMARK   35  A    between atoms: _86  and  _87
REMARK   36  A    between atoms: _86  and  _89
REMARK   37  A    between atoms: _89  and  _90
REMARK   38  A    between atoms: _93  and  _95
REMARK   39  A    between atoms: _95  and  _96
REMARK   40  A    between atoms: _95  and  _98
REMARK   41  A    between atoms: _98  and  _99
REMARK   42  A    between atoms: _101  and  _103
REMARK   43  A    between atoms: _103  and  _104
REMARK   44  A    between atoms: _103  and  _106
REMARK   45  A    between atoms: _106  and  _107
REMARK   46  A    between atoms: _107  and  _217
REMARK   47  A    between atoms: _108  and  _110
REMARK   48  A    between atoms: _110  and  _111
REMARK   49  A    between atoms: _110  and  _113
REMARK   50  A    between atoms: _113  and  _114
REMARK   51  A    between atoms: _114  and  _115
REMARK   52  A    between atoms: _120  and  _122
REMARK   53  A    between atoms: _122  and  _123
REMARK   54  A    between atoms: _125  and  _127
REMARK   55  A    between atoms: _127  and  _128
REMARK   56  A    between atoms: _127  and  _130
REMARK   57  A    between atoms: _130  and  _131
REMARK   58  A    between atoms: _134  and  _136
REMARK   59  A    between atoms: _136  and  _137
REMARK   60  A    between atoms: _136  and  _139
REMARK   61  A    between atoms: _139  and  _140
REMARK   62  A    between atoms: _142  and  _144
REMARK   63  A    between atoms: _144  and  _145
REMARK   64  A    between atoms: _147  and  _149
REMARK   65  A    between atoms: _149  and  _150
REMARK   66  A    between atoms: _152  and  _154
REMARK   67  A    between atoms: _154  and  _155
REMARK   68  A    between atoms: _154  and  _157
REMARK   69  A    between atoms: _157  and  _158
REMARK   70  A    between atoms: _161  and  _163
REMARK   71  A    between atoms: _163  and  _164
REMARK   72  A    between atoms: _163  and  _166
REMARK   73  A    between atoms: _169  and  _171
REMARK   74  A    between atoms: _171  and  _172
REMARK   75  A    between atoms: _171  and  _174
REMARK   76  A    between atoms: _174  and  _175
REMARK   77  A    between atoms: _177  and  _179
REMARK   78  A    between atoms: _179  and  _180
REMARK   79  A    between atoms: _179  and  _182
REMARK   80  A    between atoms: _182  and  _183
REMARK   81  A    between atoms: _193  and  _195
REMARK   82  A    between atoms: _195  and  _196
REMARK   83  A    between atoms: _198  and  _200
REMARK   84  A    between atoms: _200  and  _201
REMARK   85  A    between atoms: _200  and  _203
REMARK   86  A    between atoms: _203  and  _204
REMARK   87  A    between atoms: _206  and  _208
REMARK   88  A    between atoms: _208  and  _209
REMARK   89  A    between atoms: _211  and  _213
REMARK   90  A    between atoms: _213  and  _214
REMARK   91  A    between atoms: _213  and  _216
REMARK   92  A    between atoms: _216  and  _217
REMARK   93  A    between atoms: _218  and  _220
REMARK   94  A    between atoms: _220  and  _221
REMARK   95  A    between atoms: _224  and  _226
REMARK   96  A    between atoms: _226  and  _227
REMARK   97  A    between atoms: _226  and  _229
REMARK   98  A    between atoms: _229  and  _230
REMARK   99  A    between atoms: _230  and  _231
REMARK  100  A    between atoms: _236  and  _238
REMARK  101  A    between atoms: _238  and  _239
REMARK  102  A    between atoms: _238  and  _241
REMARK  103  A    between atoms: _241  and  _242
REMARK  104  A    between atoms: _242  and  _243
REMARK  105  A    between atoms: _243  and  _244
REMARK  106  A    between atoms: _244  and  _245
REMARK  107  A    between atoms: _250  and  _251
REMARK  108  A    between atoms: _256  and  _258
REMARK  109  A    between atoms: _258  and  _259
REMARK  110  A    between atoms: _261  and  _263
REMARK  111  A    between atoms: _263  and  _264
REMARK  112  A    between atoms: _263  and  _266
REMARK  113  A    between atoms: _269  and  _271
REMARK  114  A    between atoms: _271  and  _272
REMARK  115  A    between atoms: _271  and  _274
REMARK  116  A    between atoms: _274  and  _275
REMARK  117  A    between atoms: _280  and  _281
REMARK                            x       y       z     vdW  Elec       q    Type
REMARK                         _______ _______ _______ _____ _____    ______ ____
ROOT
ATOM      1  CA  LEU A   1     -20.089  18.362  45.205  0.00  0.00    +0.133 C 
ENDROOT
BRANCH   1   2
ATOM      2  N   LEU A   1     -19.499  17.058  45.487  0.00  0.00    -0.239 NA
ATOM      3  H   LEU A   1     -19.738  16.593  46.386  0.00  0.00    +0.142 HD
ENDBRANCH   1   2
BRANCH   1   4
ATOM      4  C   LEU A   1     -21.044  18.306  44.020  0.00  0.00    +0.224 C 
ATOM      5  O   LEU A   1     -21.352  19.322  43.401  0.00  0.00    -0.287 OA
ENDBRANCH   1   4
BRANCH   1   6
ATOM      6  CB  LEU A   1     -19.009  19.427  44.980  0.00  0.00    +0.025 C 
BRANCH   6   7
ATOM      7  CG  LEU A   1     -18.215  19.792  46.241  0.00  0.00    +0.002 C 
ATOM      8  CD2 LEU A   1     -19.162  20.249  47.341  0.00  0.00    +0.000 C 
ATOM      9  CD1 LEU A   1     -17.232  20.904  45.922  0.00  0.00    +0.000 C 
ENDBRANCH   6   7
ENDBRANCH   1   6
TORSDOF 4
REMARK  Name = ../refined-set-2016/2bza/2bza_pocket.pdb
REMARK  117 active torsions:
REMARK  status: ('A' for Active; 'I' for Inactive)
REMARK    1  A    between atoms: _1  and  _5
REMARK    2  A    between atoms: _5  and  _6
REMARK    3  A    between atoms: _5  and  _8
REMARK    4  A    between atoms: _8  and  _9
REMARK    5  A    between atoms: _12  and  _14
REMARK    6  A    between atoms: _14  and  _15
REMARK    7  A    between atoms: _14  and  _17
REMARK    8  A    between atoms: _20  and  _22
REMARK    9  A    between atoms: _22  and  _23
REMARK   10  A    between atoms: _22  and  _25
REMARK   11  A    between atoms: _25  and  _26
REMARK   12  A    between atoms: _31  and  _33
REMARK   13  A    between atoms: _33  and  _34
REMARK   14  A    between atoms: _33  and  _36
REMARK   15  A    between atoms: _36  and  _37
REMARK   16  A    between atoms: _40  and  _42
REMARK   17  A    between atoms: _42  and  _43
REMARK   18  A    between atoms: _42  and  _45
REMARK   19  A    between atoms: _45  and  _46
REMARK   20  A    between atoms: _51  and  _53
REMARK   21  A    between atoms: _53  and  _54
REMARK   22  A    between atoms: _53  and  _56
REMARK   23  A    between atoms: _56  and  _57
REMARK   24  A    between atoms: _62  and  _63
REMARK   25  A    between atoms: _65  and  _67
REMARK   26  A    between atoms: _67  and  _68
REMARK   27  A    between atoms: _71  and  _73
REMARK   28  A    between atoms: _73  and  _74
REMARK   29  A    between atoms: _73  and  _76
REMARK   30  A    between atoms: _76  and  _77
REMARK   31  A    between atoms: _77  and  _78
REMARK   32  A    between atoms: _78  and  _79
REMARK   33  A    between atoms: _79  and  _80
REMARK   34  A    between atoms: _84  and  _86
REMARK   35  A    between atoms: _86  and  _87
REMARK   36  A    between atoms: _86  and  _89
REMARK   37  A    between atoms: _89  and  _90
REMARK   38  A    between atoms: _93  and  _95
REMARK   39  A    between atoms: _95  and  _96
REMARK   40  A    between atoms: _95  and  _98
REMARK   41  A    between atoms: _98  and  _99
REMARK   42  A    between atoms: _101  and  _103
REMARK   43  A    between atoms: _103  and  _104
REMARK   44  A    between atoms: _103  and  _106
REMARK   45  A    between atoms: _106  and  _107
REMARK   46  A    between atoms: _107  and  _217
REMARK   47  A    between atoms: _108  and  _110
REMARK   48  A    between atoms: _110  and  _111
REMARK   49  A    between atoms: _110  and  _113
REMARK   50  A    between atoms: _113  and  _114
REMARK   51  A    between atoms: _114  and  _115
REMARK   52  A    between atoms: _120  and  _122
REMARK   53  A    between atoms: _122  and  _123
REMARK   54  A    between atoms: _125  and  _127
REMARK   55  A    between atoms: _127  and  _128
REMARK   56  A    between atoms: _127  and  _130
REMARK   57  A    between atoms: _130  and  _131
REMARK   58  A    between atoms: _134  and  _136
REMARK   59  A    between atoms: _136  and  _137
REMARK   60  A    between atoms: _136  and  _139
REMARK   61  A    between atoms: _139  and  _140
REMARK   62  A    between atoms: _142  and  _144
REMARK   63  A    between atoms: _144  and  _145
REMARK   64  A    between atoms: _147  and  _149
REMARK   65  A    between atoms: _149  and  _150
REMARK   66  A    between atoms: _152  and  _154
REMARK   67  A    between atoms: _154  and  _155
REMARK   68  A    between atoms: _154  and  _157
REMARK   69  A    between atoms: _157  and  _158
REMARK   70  A    between atoms: _161  and  _163
REMARK   71  A    between atoms: _163  and  _164
REMARK   72  A    between atoms: _163  and  _166
REMARK   73  A    between atoms: _169  and  _171
REMARK   74  A    between atoms: _171  and  _172
REMARK   75  A    between atoms: _171  and  _174
REMARK   76  A    between atoms: _174  and  _175
REMARK   77  A    between atoms: _177  and  _179
REMARK   78  A    between atoms: _179  and  _180
REMARK   79  A    between atoms: _179  and  _182
REMARK   80  A    between atoms: _182  and  _183
REMARK   81  A    between atoms: _193  and  _195
REMARK   82  A    between atoms: _195  and  _196
REMARK   83  A    between atoms: _198  and  _200
REMARK   84  A    between atoms: _200  and  _201
REMARK   85  A    between atoms: _200  and  _203
REMARK   86  A    between atoms: _203  and  _204
REMARK   87  A    between atoms: _206  and  _208
REMARK   88  A    between atoms: _208  and  _209
REMARK   89  A    between atoms: _211  and  _213
REMARK   90  A    between atoms: _213  and  _214
REMARK   91  A    between atoms: _213  and  _216
REMARK   92  A    between atoms: _216  and  _217
REMARK   93  A    between atoms: _218  and  _220
REMARK   94  A    between atoms: _220  and  _221
REMARK   95  A    between atoms: _224  and  _226
REMARK   96  A    between atoms: _226  and  _227
REMARK   97  A    between atoms: _226  and  _229
REMARK   98  A    between atoms: _229  and  _230
REMARK   99  A    between atoms: _230  and  _231
REMARK  100  A    between atoms: _236  and  _238
REMARK  101  A    between atoms: _238  and  _239
REMARK  102  A    between atoms: _238  and  _241
REMARK  103  A    between atoms: _241  and  _242
REMARK  104  A    between atoms: _242  and  _243
REMARK  105  A    between atoms: _243  and  _244
REMARK  106  A    between atoms: _244  and  _245
REMARK  107  A    between atoms: _250  and  _251
REMARK  108  A    between atoms: _256  and  _258
REMARK  109  A    between atoms: _258  and  _259
REMARK  110  A    between atoms: _261  and  _263
REMARK  111  A    between atoms: _263  and  _264
REMARK  112  A    between atoms: _263  and  _266
REMARK  113  A    between atoms: _269  and  _271
REMARK  114  A    between atoms: _271  and  _272
REMARK  115  A    between atoms: _271  and  _274
REMARK  116  A    between atoms: _274  and  _275
REMARK  117  A    between atoms: _280  and  _281
REMARK                            x       y       z     vdW  Elec       q    Type
REMARK                         _______ _______ _______ _____ _____    ______ ____
ROOT
ATOM      1  CB  ASN A   1      -9.753  34.790  48.560  0.00  0.00    +0.110 C 
ENDROOT
BRANCH   1   2
ATOM      2  CG  ASN A   1      -8.366  35.032  49.116  0.00  0.00    +0.221 C 
ATOM      3  ND2 ASN A   1      -7.988  34.241  50.115  0.00  0.00    -0.329 N 
ATOM      4 HD21 ASN A   1      -7.039  34.343  50.529  0.00  0.00    +0.145 HD
ATOM      5 HD22 ASN A   1      -8.641  33.520  50.483  0.00  0.00    +0.145 HD
ATOM      6  OD1 ASN A   1      -7.633  35.900  48.644  0.00  0.00    -0.275 OA
ENDBRANCH   1   2
BRANCH   1   7
ATOM      7  CA  ASN A   1     -10.490  36.085  48.219  0.00  0.00    +0.142 C 
BRANCH   7   8
ATOM      8  N   ASN A   1     -11.922  35.817  48.145  0.00  0.00    -0.239 NA
ATOM      9  H   ASN A   1     -12.263  34.870  48.406  0.00  0.00    +0.142 HD
ENDBRANCH   7   8
BRANCH   7  10
ATOM     10  C   ASN A   1      -9.979  36.618  46.879  0.00  0.00    +0.225 C 
ATOM     11  O   ASN A   1     -10.383  36.134  45.816  0.00  0.00    -0.287 OA
ENDBRANCH   7  10
ENDBRANCH   1   7
TORSDOF 4
REMARK  Name = ../refined-set-2016/2bza/2bza_pocket.pdb
REMARK  117 active torsions:
REMARK  status: ('A' for Active; 'I' for Inactive)
REMARK    1  A    between atoms: _1  and  _5
REMARK    2  A    between atoms: _5  and  _6
REMARK    3  A    between atoms: _5  and  _8
REMARK    4  A    between atoms: _8  and  _9
REMARK    5  A    between atoms: _12  and  _14
REMARK    6  A    between atoms: _14  and  _15
REMARK    7  A    between atoms: _14  and  _17
REMARK    8  A    between atoms: _20  and  _22
REMARK    9  A    between atoms: _22  and  _23
REMARK   10  A    between atoms: _22  and  _25
REMARK   11  A    between atoms: _25  and  _26
REMARK   12  A    between atoms: _31  and  _33
REMARK   13  A    between atoms: _33  and  _34
REMARK   14  A    between atoms: _33  and  _36
REMARK   15  A    between atoms: _36  and  _37
REMARK   16  A    between atoms: _40  and  _42
REMARK   17  A    between atoms: _42  and  _43
REMARK   18  A    between atoms: _42  and  _45
REMARK   19  A    between atoms: _45  and  _46
REMARK   20  A    between atoms: _51  and  _53
REMARK   21  A    between atoms: _53  and  _54
REMARK   22  A    between atoms: _53  and  _56
REMARK   23  A    between atoms: _56  and  _57
REMARK   24  A    between atoms: _62  and  _63
REMARK   25  A    between atoms: _65  and  _67
REMARK   26  A    between atoms: _67  and  _68
REMARK   27  A    between atoms: _71  and  _73
REMARK   28  A    between atoms: _73  and  _74
REMARK   29  A    between atoms: _73  and  _76
REMARK   30  A    between atoms: _76  and  _77
REMARK   31  A    between atoms: _77  and  _78
REMARK   32  A    between atoms: _78  and  _79
REMARK   33  A    between atoms: _79  and  _80
REMARK   34  A    between atoms: _84  and  _86
REMARK   35  A    between atoms: _86  and  _87
REMARK   36  A    between atoms: _86  and  _89
REMARK   37  A    between atoms: _89  and  _90
REMARK   38  A    between atoms: _93  and  _95
REMARK   39  A    between atoms: _95  and  _96
REMARK   40  A    between atoms: _95  and  _98
REMARK   41  A    between atoms: _98  and  _99
REMARK   42  A    between atoms: _101  and  _103
REMARK   43  A    between atoms: _103  and  _104
REMARK   44  A    between atoms: _103  and  _106
REMARK   45  A    between atoms: _106  and  _107
REMARK   46  A    between atoms: _107  and  _217
REMARK   47  A    between atoms: _108  and  _110
REMARK   48  A    between atoms: _110  and  _111
REMARK   49  A    between atoms: _110  and  _113
REMARK   50  A    between atoms: _113  and  _114
REMARK   51  A    between atoms: _114  and  _115
REMARK   52  A    between atoms: _120  and  _122
REMARK   53  A    between atoms: _122  and  _123
REMARK   54  A    between atoms: _125  and  _127
REMARK   55  A    between atoms: _127  and  _128
REMARK   56  A    between atoms: _127  and  _130
REMARK   57  A    between atoms: _130  and  _131
REMARK   58  A    between atoms: _134  and  _136
REMARK   59  A    between atoms: _136  and  _137
REMARK   60  A    between atoms: _136  and  _139
REMARK   61  A    between atoms: _139  and  _140
REMARK   62  A    between atoms: _142  and  _144
REMARK   63  A    between atoms: _144  and  _145
REMARK   64  A    between atoms: _147  and  _149
REMARK   65  A    between atoms: _149  and  _150
REMARK   66  A    between atoms: _152  and  _154
REMARK   67  A    between atoms: _154  and  _155
REMARK   68  A    between atoms: _154  and  _157
REMARK   69  A    between atoms: _157  and  _158
REMARK   70  A    between atoms: _161  and  _163
REMARK   71  A    between atoms: _163  and  _164
REMARK   72  A    between atoms: _163  and  _166
REMARK   73  A    between atoms: _169  and  _171
REMARK   74  A    between atoms: _171  and  _172
REMARK   75  A    between atoms: _171  and  _174
REMARK   76  A    between atoms: _174  and  _175
REMARK   77  A    between atoms: _177  and  _179
REMARK   78  A    between atoms: _179  and  _180
REMARK   79  A    between atoms: _179  and  _182
REMARK   80  A    between atoms: _182  and  _183
REMARK   81  A    between atoms: _193  and  _195
REMARK   82  A    between atoms: _195  and  _196
REMARK   83  A    between atoms: _198  and  _200
REMARK   84  A    between atoms: _200  and  _201
REMARK   85  A    between atoms: _200  and  _203
REMARK   86  A    between atoms: _203  and  _204
REMARK   87  A    between atoms: _206  and  _208
REMARK   88  A    between atoms: _208  and  _209
REMARK   89  A    between atoms: _211  and  _213
REMARK   90  A    between atoms: _213  and  _214
REMARK   91  A    between atoms: _213  and  _216
REMARK   92  A    between atoms: _216  and  _217
REMARK   93  A    between atoms: _218  and  _220
REMARK   94  A    between atoms: _220  and  _221
REMARK   95  A    between atoms: _224  and  _226
REMARK   96  A    between atoms: _226  and  _227
REMARK   97  A    between atoms: _226  and  _229
REMARK   98  A    between atoms: _229  and  _230
REMARK   99  A    between atoms: _230  and  _231
REMARK  100  A    between atoms: _236  and  _238
REMARK  101  A    between atoms: _238  and  _239
REMARK  102  A    between atoms: _238  and  _241
REMARK  103  A    between atoms: _241  and  _242
REMARK  104  A    between atoms: _242  and  _243
REMARK  105  A    between atoms: _243  and  _244
REMARK  106  A    between atoms: _244  and  _245
REMARK  107  A    between atoms: _250  and  _251
REMARK  108  A    between atoms: _256  and  _258
REMARK  109  A    between atoms: _258  and  _259
REMARK  110  A    between atoms: _261  and  _263
REMARK  111  A    between atoms: _263  and  _264
REMARK  112  A    between atoms: _263  and  _266
REMARK  113  A    between atoms: _269  and  _271
REMARK  114  A    between atoms: _271  and  _272
REMARK  115  A    between atoms: _271  and  _274
REMARK  116  A    between atoms: _274  and  _275
REMARK  117  A    between atoms: _280  and  _281
REMARK                            x       y       z     vdW  Elec       q    Type
REMARK                         _______ _______ _______ _____ _____    ______ ____
ROOT
ATOM      1  CG  TYR A   1     -10.824  19.350  37.771  0.00  0.00    -0.020 A 
ATOM      2  CD2 TYR A   1     -10.200  19.547  39.004  0.00  0.00    -0.001 A 
ATOM      3  CE2 TYR A   1      -9.845  20.820  39.435  0.00  0.00    +0.036 A 
ATOM      4  CZ  TYR A   1     -10.115  21.912  38.629  0.00  0.00    +0.134 A 
ATOM      5  CE1 TYR A   1     -10.729  21.743  37.397  0.00  0.00    +0.036 A 
ATOM      6  CD1 TYR A   1     -11.079  20.464  36.975  0.00  0.00    -0.001 A 
ENDROOT
BRANCH   4   7
ATOM      7  OH  TYR A   1      -9.776  23.168  39.062  0.00  0.00    -0.506 OA
ATOM      8  HH  TYR A   1     -10.591  23.726  39.123  0.00  0.00    +0.292 HD
ENDBRANCH   4   7
BRANCH   1   9
ATOM      9  CB  TYR A   1     -11.213  17.965  37.320  0.00  0.00    +0.051 C 
BRANCH   9  10
ATOM     10  CA  TYR A   1     -10.089  17.174  36.644  0.00  0.00    +0.137 C 
BRANCH  10  11
ATOM     11  N   TYR A   1      -9.617  17.868  35.448  0.00  0.00    -0.239 NA
ATOM     12  H   TYR A   1     -10.217  17.877  34.599  0.00  0.00    +0.142 HD
ENDBRANCH  10  11
BRANCH  10  13
ATOM     13  C   TYR A   1     -10.614  15.788  36.288  0.00  0.00    +0.224 C 
ATOM     14  O   TYR A   1     -11.816  15.537  36.348  0.00  0.00    -0.287 OA
ENDBRANCH  10  13
ENDBRANCH   9  10
ENDBRANCH   1   9
TORSDOF 5
REMARK  Name = ../refined-set-2016/2bza/2bza_pocket.pdb
REMARK  117 active torsions:
REMARK  status: ('A' for Active; 'I' for Inactive)
REMARK    1  A    between atoms: _1  and  _5
REMARK    2  A    between atoms: _5  and  _6
REMARK    3  A    between atoms: _5  and  _8
REMARK    4  A    between atoms: _8  and  _9
REMARK    5  A    between atoms: _12  and  _14
REMARK    6  A    between atoms: _14  and  _15
REMARK    7  A    between atoms: _14  and  _17
REMARK    8  A    between atoms: _20  and  _22
REMARK    9  A    between atoms: _22  and  _23
REMARK   10  A    between atoms: _22  and  _25
REMARK   11  A    between atoms: _25  and  _26
REMARK   12  A    between atoms: _31  and  _33
REMARK   13  A    between atoms: _33  and  _34
REMARK   14  A    between atoms: _33  and  _36
REMARK   15  A    between atoms: _36  and  _37
REMARK   16  A    between atoms: _40  and  _42
REMARK   17  A    between atoms: _42  and  _43
REMARK   18  A    between atoms: _42  and  _45
REMARK   19  A    between atoms: _45  and  _46
REMARK   20  A    between atoms: _51  and  _53
REMARK   21  A    between atoms: _53  and  _54
REMARK   22  A    between atoms: _53  and  _56
REMARK   23  A    between atoms: _56  and  _57
REMARK   24  A    between atoms: _62  and  _63
REMARK   25  A    between atoms: _65  and  _67
REMARK   26  A    between atoms: _67  and  _68
REMARK   27  A    between atoms: _71  and  _73
REMARK   28  A    between atoms: _73  and  _74
REMARK   29  A    between atoms: _73  and  _76
REMARK   30  A    between atoms: _76  and  _77
REMARK   31  A    between atoms: _77  and  _78
REMARK   32  A    between atoms: _78  and  _79
REMARK   33  A    between atoms: _79  and  _80
REMARK   34  A    between atoms: _84  and  _86
REMARK   35  A    between atoms: _86  and  _87
REMARK   36  A    between atoms: _86  and  _89
REMARK   37  A    between atoms: _89  and  _90
REMARK   38  A    between atoms: _93  and  _95
REMARK   39  A    between atoms: _95  and  _96
REMARK   40  A    between atoms: _95  and  _98
REMARK   41  A    between atoms: _98  and  _99
REMARK   42  A    between atoms: _101  and  _103
REMARK   43  A    between atoms: _103  and  _104
REMARK   44  A    between atoms: _103  and  _106
REMARK   45  A    between atoms: _106  and  _107
REMARK   46  A    between atoms: _107  and  _217
REMARK   47  A    between atoms: _108  and  _110
REMARK   48  A    between atoms: _110  and  _111
REMARK   49  A    between atoms: _110  and  _113
REMARK   50  A    between atoms: _113  and  _114
REMARK   51  A    between atoms: _114  and  _115
REMARK   52  A    between atoms: _120  and  _122
REMARK   53  A    between atoms: _122  and  _123
REMARK   54  A    between atoms: _125  and  _127
REMARK   55  A    between atoms: _127  and  _128
REMARK   56  A    between atoms: _127  and  _130
REMARK   57  A    between atoms: _130  and  _131
REMARK   58  A    between atoms: _134  and  _136
REMARK   59  A    between atoms: _136  and  _137
REMARK   60  A    between atoms: _136  and  _139
REMARK   61  A    between atoms: _139  and  _140
REMARK   62  A    between atoms: _142  and  _144
REMARK   63  A    between atoms: _144  and  _145
REMARK   64  A    between atoms: _147  and  _149
REMARK   65  A    between atoms: _149  and  _150
REMARK   66  A    between atoms: _152  and  _154
REMARK   67  A    between atoms: _154  and  _155
REMARK   68  A    between atoms: _154  and  _157
REMARK   69  A    between atoms: _157  and  _158
REMARK   70  A    between atoms: _161  and  _163
REMARK   71  A    between atoms: _163  and  _164
REMARK   72  A    between atoms: _163  and  _166
REMARK   73  A    between atoms: _169  and  _171
REMARK   74  A    between atoms: _171  and  _172
REMARK   75  A    between atoms: _171  and  _174
REMARK   76  A    between atoms: _174  and  _175
REMARK   77  A    between atoms: _177  and  _179
REMARK   78  A    between atoms: _179  and  _180
REMARK   79  A    between atoms: _179  and  _182
REMARK   80  A    between atoms: _182  and  _183
REMARK   81  A    between atoms: _193  and  _195
REMARK   82  A    between atoms: _195  and  _196
REMARK   83  A    between atoms: _198  and  _200
REMARK   84  A    between atoms: _200  and  _201
REMARK   85  A    between atoms: _200  and  _203
REMARK   86  A    between atoms: _203  and  _204
REMARK   87  A    between atoms: _206  and  _208
REMARK   88  A    between atoms: _208  and  _209
REMARK   89  A    between atoms: _211  and  _213
REMARK   90  A    between atoms: _213  and  _214
REMARK   91  A    between atoms: _213  and  _216
REMARK   92  A    between atoms: _216  and  _217
REMARK   93  A    between atoms: _218  and  _220
REMARK   94  A    between atoms: _220  and  _221
REMARK   95  A    between atoms: _224  and  _226
REMARK   96  A    between atoms: _226  and  _227
REMARK   97  A    between atoms: _226  and  _229
REMARK   98  A    between atoms: _229  and  _230
REMARK   99  A    between atoms: _230  and  _231
REMARK  100  A    between atoms: _236  and  _238
REMARK  101  A    between atoms: _238  and  _239
REMARK  102  A    between atoms: _238  and  _241
REMARK  103  A    between atoms: _241  and  _242
REMARK  104  A    between atoms: _242  and  _243
REMARK  105  A    between atoms: _243  and  _244
REMARK  106  A    between atoms: _244  and  _245
REMARK  107  A    between atoms: _250  and  _251
REMARK  108  A    between atoms: _256  and  _258
REMARK  109  A    between atoms: _258  and  _259
REMARK  110  A    between atoms: _261  and  _263
REMARK  111  A    between atoms: _263  and  _264
REMARK  112  A    between atoms: _263  and  _266
REMARK  113  A    between atoms: _269  and  _271
REMARK  114  A    between atoms: _271  and  _272
REMARK  115  A    between atoms: _271  and  _274
REMARK  116  A    between atoms: _274  and  _275
REMARK  117  A    between atoms: _280  and  _281
REMARK                            x       y       z     vdW  Elec       q    Type
REMARK                         _______ _______ _______ _____ _____    ______ ____
ROOT
ATOM      1  CA  ALA A   1     -14.947  28.346  33.168  0.00  0.00    +0.133 C 
ATOM      2  CB  ALA A   1     -16.190  29.138  33.575  0.00  0.00    +0.027 C 
ENDROOT
BRANCH   1   3
ATOM      3  N   ALA A   1     -14.977  27.008  33.742  0.00  0.00    -0.239 NA
ATOM      4  H   ALA A   1     -14.564  26.854  34.684  0.00  0.00    +0.142 HD
ENDBRANCH   1   3
BRANCH   1   5
ATOM      5  C   ALA A   1     -13.695  29.014  33.711  0.00  0.00    +0.224 C 
ATOM      6  O   ALA A   1     -13.308  28.777  34.854  0.00  0.00    -0.287 OA
ENDBRANCH   1   5
TORSDOF 2
REMARK  Name = ../refined-set-2016/2bza/2bza_pocket.pdb
REMARK  117 active torsions:
REMARK  status: ('A' for Active; 'I' for Inactive)
REMARK    1  A    between atoms: _1  and  _5
REMARK    2  A    between atoms: _5  and  _6
REMARK    3  A    between atoms: _5  and  _8
REMARK    4  A    between atoms: _8  and  _9
REMARK    5  A    between atoms: _12  and  _14
REMARK    6  A    between atoms: _14  and  _15
REMARK    7  A    between atoms: _14  and  _17
REMARK    8  A    between atoms: _20  and  _22
REMARK    9  A    between atoms: _22  and  _23
REMARK   10  A    between atoms: _22  and  _25
REMARK   11  A    between atoms: _25  and  _26
REMARK   12  A    between atoms: _31  and  _33
REMARK   13  A    between atoms: _33  and  _34
REMARK   14  A    between atoms: _33  and  _36
REMARK   15  A    between atoms: _36  and  _37
REMARK   16  A    between atoms: _40  and  _42
REMARK   17  A    between atoms: _42  and  _43
REMARK   18  A    between atoms: _42  and  _45
REMARK   19  A    between atoms: _45  and  _46
REMARK   20  A    between atoms: _51  and  _53
REMARK   21  A    between atoms: _53  and  _54
REMARK   22  A    between atoms: _53  and  _56
REMARK   23  A    between atoms: _56  and  _57
REMARK   24  A    between atoms: _62  and  _63
REMARK   25  A    between atoms: _65  and  _67
REMARK   26  A    between atoms: _67  and  _68
REMARK   27  A    between atoms: _71  and  _73
REMARK   28  A    between atoms: _73  and  _74
REMARK   29  A    between atoms: _73  and  _76
REMARK   30  A    between atoms: _76  and  _77
REMARK   31  A    between atoms: _77  and  _78
REMARK   32  A    between atoms: _78  and  _79
REMARK   33  A    between atoms: _79  and  _80
REMARK   34  A    between atoms: _84  and  _86
REMARK   35  A    between atoms: _86  and  _87
REMARK   36  A    between atoms: _86  and  _89
REMARK   37  A    between atoms: _89  and  _90
REMARK   38  A    between atoms: _93  and  _95
REMARK   39  A    between atoms: _95  and  _96
REMARK   40  A    between atoms: _95  and  _98
REMARK   41  A    between atoms: _98  and  _99
REMARK   42  A    between atoms: _101  and  _103
REMARK   43  A    between atoms: _103  and  _104
REMARK   44  A    between atoms: _103  and  _106
REMARK   45  A    between atoms: _106  and  _107
REMARK   46  A    between atoms: _107  and  _217
REMARK   47  A    between atoms: _108  and  _110
REMARK   48  A    between atoms: _110  and  _111
REMARK   49  A    between atoms: _110  and  _113
REMARK   50  A    between atoms: _113  and  _114
REMARK   51  A    between atoms: _114  and  _115
REMARK   52  A    between atoms: _120  and  _122
REMARK   53  A    between atoms: _122  and  _123
REMARK   54  A    between atoms: _125  and  _127
REMARK   55  A    between atoms: _127  and  _128
REMARK   56  A    between atoms: _127  and  _130
REMARK   57  A    between atoms: _130  and  _131
REMARK   58  A    between atoms: _134  and  _136
REMARK   59  A    between atoms: _136  and  _137
REMARK   60  A    between atoms: _136  and  _139
REMARK   61  A    between atoms: _139  and  _140
REMARK   62  A    between atoms: _142  and  _144
REMARK   63  A    between atoms: _144  and  _145
REMARK   64  A    between atoms: _147  and  _149
REMARK   65  A    between atoms: _149  and  _150
REMARK   66  A    between atoms: _152  and  _154
REMARK   67  A    between atoms: _154  and  _155
REMARK   68  A    between atoms: _154  and  _157
REMARK   69  A    between atoms: _157  and  _158
REMARK   70  A    between atoms: _161  and  _163
REMARK   71  A    between atoms: _163  and  _164
REMARK   72  A    between atoms: _163  and  _166
REMARK   73  A    between atoms: _169  and  _171
REMARK   74  A    between atoms: _171  and  _172
REMARK   75  A    between atoms: _171  and  _174
REMARK   76  A    between atoms: _174  and  _175
REMARK   77  A    between atoms: _177  and  _179
REMARK   78  A    between atoms: _179  and  _180
REMARK   79  A    between atoms: _179  and  _182
REMARK   80  A    between atoms: _182  and  _183
REMARK   81  A    between atoms: _193  and  _195
REMARK   82  A    between atoms: _195  and  _196
REMARK   83  A    between atoms: _198  and  _200
REMARK   84  A    between atoms: _200  and  _201
REMARK   85  A    between atoms: _200  and  _203
REMARK   86  A    between atoms: _203  and  _204
REMARK   87  A    between atoms: _206  and  _208
REMARK   88  A    between atoms: _208  and  _209
REMARK   89  A    between atoms: _211  and  _213
REMARK   90  A    between atoms: _213  and  _214
REMARK   91  A    between atoms: _213  and  _216
REMARK   92  A    between atoms: _216  and  _217
REMARK   93  A    between atoms: _218  and  _220
REMARK   94  A    between atoms: _220  and  _221
REMARK   95  A    between atoms: _224  and  _226
REMARK   96  A    between atoms: _226  and  _227
REMARK   97  A    between atoms: _226  and  _229
REMARK   98  A    between atoms: _229  and  _230
REMARK   99  A    between atoms: _230  and  _231
REMARK  100  A    between atoms: _236  and  _238
REMARK  101  A    between atoms: _238  and  _239
REMARK  102  A    between atoms: _238  and  _241
REMARK  103  A    between atoms: _241  and  _242
REMARK  104  A    between atoms: _242  and  _243
REMARK  105  A    between atoms: _243  and  _244
REMARK  106  A    between atoms: _244  and  _245
REMARK  107  A    between atoms: _250  and  _251
REMARK  108  A    between atoms: _256  and  _258
REMARK  109  A    between atoms: _258  and  _259
REMARK  110  A    between atoms: _261  and  _263
REMARK  111  A    between atoms: _263  and  _264
REMARK  112  A    between atoms: _263  and  _266
REMARK  113  A    between atoms: _269  and  _271
REMARK  114  A    between atoms: _271  and  _272
REMARK  115  A    between atoms: _271  and  _274
REMARK  116  A    between atoms: _274  and  _275
REMARK  117  A    between atoms: _280  and  _281
REMARK                            x       y       z     vdW  Elec       q    Type
REMARK                         _______ _______ _______ _____ _____    ______ ____
ROOT
ATOM      1  CB  CYS A   8      -7.864  30.752  43.836  0.00  0.00    +0.098 C 
ENDROOT
BRANCH   1   2
ATOM      2  SG  CYS A   8      -9.026  30.232  45.133  0.00  0.00    -0.080 S 
BRANCH   2   3
ATOM      3  SG  TRP A   4      -9.414  31.953  46.140  0.00  0.00    -0.080 S 
BRANCH   3   4
ATOM      4  CB  TRP A   4     -10.760  32.720  45.181  0.00  0.00    +0.098 C 
BRANCH   4   5
ATOM      5  CA  TRP A   4     -11.983  31.829  44.913  0.00  0.00    +0.160 C 
BRANCH   5   7
ATOM      6  C   SER A   3     -12.391  32.043  42.549  0.00  0.00    +0.243 C 
ATOM      7  N   TRP A   4     -12.726  32.388  43.787  0.00  0.00    -0.296 N 
ATOM      8  H   TRP A   4     -13.510  33.050  43.953  0.00  0.00    +0.150 HD
ATOM      9  O   SER A   3     -11.480  31.247  42.319  0.00  0.00    -0.273 OA
BRANCH   6  10
ATOM     10  CA  SER A   3     -13.163  32.671  41.387  0.00  0.00    +0.178 C 
BRANCH  10  13
ATOM     11  C   VAL A   2     -11.344  33.231  39.882  0.00  0.00    +0.241 C 
ATOM     12  O   VAL A   2     -11.179  34.330  40.417  0.00  0.00    -0.273 OA
ATOM     13  N   SER A   3     -12.300  32.384  40.249  0.00  0.00    -0.295 N 
ATOM     14  H   SER A   3     -12.434  31.502  39.715  0.00  0.00    +0.150 HD
BRANCH  11  15
ATOM     15  CA  VAL A   2     -10.448  32.780  38.729  0.00  0.00    +0.160 C 
BRANCH  15  17
ATOM     16  C   ILE A   1      -8.826  33.751  37.222  0.00  0.00    +0.238 C 
ATOM     17  N   VAL A   2      -9.571  33.868  38.319  0.00  0.00    -0.297 N 
ATOM     18  H   VAL A   2      -9.527  34.739  38.885  0.00  0.00    +0.150 HD
ATOM     19  O   ILE A   1      -8.887  32.772  36.476  0.00  0.00    -0.274 OA
BRANCH  16  20
ATOM     20  CA  ILE A   1      -7.887  34.905  36.910  0.00  0.00    +0.145 C 
BRANCH  20  21
ATOM     21  N   ILE A   1      -6.535  34.372  36.764  0.00  0.00    -0.238 NA
ATOM     22  H   ILE A   1      -6.398  33.466  36.272  0.00  0.00    +0.142 HD
ENDBRANCH  20  21
BRANCH  20  23
ATOM     23  CB  ILE A   1      -8.318  35.631  35.629  0.00  0.00    +0.026 C 
BRANCH  23  24
ATOM     24  CG  ILE A   1      -7.397  36.791  35.265  0.00  0.00    -0.000 C 
BRANCH  24  25
ATOM     25  CD  ILE A   1      -7.995  37.715  34.216  0.00  0.00    -0.024 C 
BRANCH  25  26
ATOM     26  CE  ILE A   1      -8.253  37.008  32.903  0.00  0.00    -0.086 C 
BRANCH  26  27
ATOM     27  NZ  ILE A   1      -8.886  37.936  31.923  0.00  0.00    +0.380 N 
ATOM     28  HZ1 ILE A   1      -9.791  38.278  32.306  0.00  0.00    -0.089 HD
ATOM     29  HZ2 ILE A   1      -8.253  38.743  31.753  0.00  0.00    -0.089 HD
ATOM     30  HZ3 ILE A   1      -9.055  37.432  31.029  0.00  0.00    -0.089 HD
ENDBRANCH  26  27
ENDBRANCH  25  26
ENDBRANCH  24  25
ENDBRANCH  23  24
ENDBRANCH  20  23
ENDBRANCH  16  20
ENDBRANCH  15  17
BRANCH  15  31
ATOM     31  CB  VAL A   2      -9.559  31.624  39.203  0.00  0.00    +0.143 C 
BRANCH  31  32
ATOM     32  CG  VAL A   2     -10.305  30.322  39.375  0.00  0.00    +0.367 C 
ATOM     33  OD2 VAL A   2      -9.684  29.371  39.893  0.00  0.00    -0.246 OA
ATOM     34  OD1 VAL A   2     -11.485  30.232  38.987  0.00  0.00    -0.246 OA
ENDBRANCH  31  32
ENDBRANCH  15  31
ENDBRANCH  11  15
ENDBRANCH  10  13
BRANCH  10  35
ATOM     35  CB  SER A   3     -14.535  32.012  41.211  0.00  0.00    +0.166 C 
BRANCH  35  36
ATOM     36  OG  SER A   3     -14.415  30.620  40.974  0.00  0.00    -0.380 OA
ATOM     37  H   SER A   3     -13.887  30.471  40.150  0.00  0.00    +0.211 HD
ENDBRANCH  35  36
ENDBRANCH  10  35
ENDBRANCH   6  10
ENDBRANCH   5   7
BRANCH   5  38
ATOM     38  C   TRP A   4     -12.863  31.704  46.158  0.00  0.00    +0.242 C 
ATOM     39  N   GLY A   5     -12.283  31.267  47.275  0.00  0.00    -0.297 N 
ATOM     40  H   GLY A   5     -11.268  31.039  47.273  0.00  0.00    +0.150 HD
ATOM     41  O   TRP A   4     -14.060  31.995  46.104  0.00  0.00    -0.273 OA
BRANCH  39  42
ATOM     42  CA  GLY A   5     -13.060  31.105  48.504  0.00  0.00    +0.149 C 
BRANCH  42  43
ATOM     43  C   GLY A   5     -13.824  32.382  48.841  0.00  0.00    +0.241 C 
ATOM     44  N   SER A   6     -15.112  32.241  49.144  0.00  0.00    -0.295 N 
ATOM     45  H   SER A   6     -15.542  31.294  49.149  0.00  0.00    +0.150 HD
ATOM     46  O   GLY A   5     -13.255  33.473  48.829  0.00  0.00    -0.273 OA
BRANCH  44  47
ATOM     47  CA  SER A   6     -15.919  33.404  49.467  0.00  0.00    +0.176 C 
BRANCH  47  48
ATOM     48  C   SER A   6     -16.828  33.779  48.308  0.00  0.00    +0.243 C 
ATOM     49  O   SER A   6     -17.828  34.471  48.490  0.00  0.00    -0.273 OA
ATOM     50  N   GLY A   7     -16.465  33.328  47.109  0.00  0.00    -0.296 N 
ATOM     51  H   GLY A   7     -15.588  32.775  47.029  0.00  0.00    +0.150 HD
BRANCH  50  52
ATOM     52  CA  GLY A   7     -17.247  33.578  45.902  0.00  0.00    +0.160 C 
BRANCH  52  53
ATOM     53  C   GLY A   7     -18.300  32.482  45.730  0.00  0.00    +0.241 C 
ATOM     54  N   CYS A   8     -18.097  31.356  46.415  0.00  0.00    -0.295 N 
ATOM     55  H   CYS A   8     -17.259  31.286  47.026  0.00  0.00    +0.150 HD
ATOM     56  O   GLY A   7     -19.266  32.652  44.987  0.00  0.00    -0.273 OA
BRANCH  54  57
ATOM     57  CA  CYS A   8     -19.008  30.217  46.339  0.00  0.00    +0.178 C 
BRANCH  57  58
ATOM     58  C   CYS A   8     -20.474  30.622  46.429  0.00  0.00    +0.243 C 
ATOM     59  O   CYS A   8     -20.846  31.470  47.242  0.00  0.00    -0.273 OA
ATOM     60  N   ALA A   9     -21.301  29.995  45.597  0.00  0.00    -0.295 N 
ATOM     61  H   ALA A   9     -20.922  29.281  44.942  0.00  0.00    +0.150 HD
BRANCH  60  62
ATOM     62  CA  ALA A   9     -22.723  30.289  45.586  0.00  0.00    +0.176 C 
BRANCH  62  63
ATOM     63  C   ALA A   9     -23.087  31.456  44.688  0.00  0.00    +0.243 C 
ATOM     64  O   ALA A   9     -24.258  31.658  44.370  0.00  0.00    -0.273 OA
ATOM     65  N   GLN A  10     -22.077  32.219  44.284  0.00  0.00    -0.296 N 
ATOM     66  H   GLN A  10     -21.111  31.983  44.588  0.00  0.00    +0.150 HD
BRANCH  65  67
ATOM     67  CA  GLN A  10     -22.286  33.375  43.428  0.00  0.00    +0.163 C 
BRANCH  67  68
ATOM     68  C   GLN A  10     -22.676  33.042  41.999  0.00  0.00    +0.229 C 
ATOM     69  O   GLN A  10     -22.557  31.898  41.565  0.00  0.00    -0.286 OA
ENDBRANCH  67  68
ENDBRANCH  65  67
ENDBRANCH  62  63
ENDBRANCH  60  62
ENDBRANCH  57  58
BRANCH  57  70
ATOM     70  CB  CYS A   8     -18.695  29.212  47.455  0.00  0.00    +0.166 C 
BRANCH  70  71
ATOM     71  O   CYS A   8     -17.390  28.681  47.313  0.00  0.00    -0.380 OA
ATOM     72  H   CYS A   8     -17.216  28.037  48.045  0.00  0.00    +0.211 HD
ENDBRANCH  70  71
ENDBRANCH  57  70
ENDBRANCH  54  57
ENDBRANCH  52  53
BRANCH  52  73
ATOM     73  CB  GLY A   7     -16.329  33.583  44.673  0.00  0.00    +0.143 C 
BRANCH  73  74
ATOM     74  CG  GLY A   7     -15.441  34.806  44.612  0.00  0.00    +0.367 C 
ATOM     75  OD2 GLY A   7     -15.884  35.886  45.058  0.00  0.00    -0.246 OA
ATOM     76  OD1 GLY A   7     -14.308  34.691  44.093  0.00  0.00    -0.246 OA
ENDBRANCH  73  74
ENDBRANCH  52  73
ENDBRANCH  50  52
ENDBRANCH  47  48
ENDBRANCH  44  47
ENDBRANCH  42  43
BRANCH  42  77
ATOM     77  CB  GLY A   5     -12.158  30.730  49.686  0.00  0.00    +0.039 C 
BRANCH  77  78
ATOM     78  CG  GLY A   5     -11.334  29.466  49.476  0.00  0.00    +0.087 C 
BRANCH  78  79
ATOM     79  CD  GLY A   5      -9.989  29.740  48.826  0.00  0.00    +0.219 C 
ATOM     80  NE2 GLY A   5      -9.607  31.012  48.771  0.00  0.00    -0.329 N 
ATOM     81 HE21 GLY A   5     -10.230  31.758  49.141  0.00  0.00    +0.145 HD
ATOM     82 HE22 GLY A   5      -8.686  31.261  48.358  0.00  0.00    +0.145 HD
ATOM     83  OE1 GLY A   5      -9.290  28.818  48.402  0.00  0.00    -0.275 OA
ENDBRANCH  78  79
ENDBRANCH  77  78
ENDBRANCH  42  77
ENDBRANCH  39  42
ENDBRANCH   5  38
ENDBRANCH   4   5
ENDBRANCH   3   4
ENDBRANCH   2   3
ENDBRANCH   1   2
BRANCH   1  84
ATOM     84  CA  CYS A   8      -7.413  29.639  42.884  0.00  0.00    +0.160 C 
BRANCH  84  85
ATOM     85  C   CYS A   8      -6.393  30.221  41.911  0.00  0.00    +0.242 C 
ATOM     86  O   CYS A   8      -5.241  30.461  42.275  0.00  0.00    -0.273 OA
ATOM     87  N   ALA A   9      -6.828  30.437  40.674  0.00  0.00    -0.297 N 
ATOM     88  H   ALA A   9      -7.809  30.184  40.438  0.00  0.00    +0.150 HD
BRANCH  87  89
ATOM     89  CA  ALA A   9      -5.986  31.014  39.635  0.00  0.00    +0.149 C 
ATOM     90  CB  ALA A   9      -5.651  32.460  39.990  0.00  0.00    +0.031 C 
BRANCH  89  91
ATOM     91  C   ALA A   9      -4.704  30.236  39.349  0.00  0.00    +0.241 C 
ATOM     92  N   GLN A  10      -4.713  28.935  39.621  0.00  0.00    -0.298 N 
ATOM     93  H   GLN A  10      -5.567  28.506  40.032  0.00  0.00    +0.150 HD
ATOM     94  O   ALA A   9      -3.718  30.813  38.892  0.00  0.00    -0.273 OA
BRANCH  92  95
ATOM     95  CA  GLN A  10      -3.547  28.095  39.354  0.00  0.00    +0.137 C 
BRANCH  95  96
ATOM     96  C   GLN A  10      -3.602  27.618  37.903  0.00  0.00    +0.227 C 
ATOM     97  O   GLN A  10      -4.682  27.423  37.342  0.00  0.00    -0.286 OA
ENDBRANCH  95  96
BRANCH  95  98
ATOM     98  CB  GLN A  10      -3.526  26.882  40.290  0.00  0.00    +0.037 C 
BRANCH  98  99
ATOM     99  CG  GLN A  10      -3.367  27.229  41.758  0.00  0.00    +0.087 C 
BRANCH  99 100
ATOM    100  CD  GLN A  10      -2.081  27.979  42.040  0.00  0.00    +0.219 C 
ATOM    101  NE2 GLN A  10      -2.207  29.196  42.560  0.00  0.00    -0.329 N 
ATOM    102 HE21 GLN A  10      -1.360  29.760  42.774  0.00  0.00    +0.145 HD
ATOM    103 HE22 GLN A  10      -3.153  29.584  42.753  0.00  0.00    +0.145 HD
ATOM    104  OE1 GLN A  10      -0.985  27.473  41.792  0.00  0.00    -0.275 OA
ENDBRANCH  99 100
ENDBRANCH  98  99
ENDBRANCH  95  98
ENDBRANCH  92  95
ENDBRANCH  89  91
ENDBRANCH  87  89
ENDBRANCH  84  85
BRANCH  84 105
ATOM    105  N   CYS A   8      -6.843  28.520  43.628  0.00  0.00    -0.296 N 
ATOM    106  H   CYS A   8      -5.863  28.585  43.970  0.00  0.00    +0.150 HD
ATOM    107  C   GLY A   7      -7.545  27.422  43.879  0.00  0.00    +0.243 C 
ATOM    108  O   GLY A   7      -8.715  27.279  43.514  0.00  0.00    -0.273 OA
BRANCH 107 109
ATOM    109  CA  GLY A   7      -6.845  26.314  44.648  0.00  0.00    +0.176 C 
BRANCH 109 110
ATOM    110  N   GLY A   7      -7.544  25.061  44.413  0.00  0.00    -0.295 N 
ATOM    111  H   GLY A   7      -8.105  24.632  45.176  0.00  0.00    +0.150 HD
ATOM    112  C   SER A   6      -7.471  24.460  43.229  0.00  0.00    +0.243 C 
ATOM    113  O   SER A   6      -6.810  24.906  42.292  0.00  0.00    -0.273 OA
BRANCH 112 114
ATOM    114  CA  SER A   6      -8.268  23.171  43.072  0.00  0.00    +0.178 C 
BRANCH 114 115
ATOM    115  N   SER A   6      -9.477  23.517  42.335  0.00  0.00    -0.295 N 
ATOM    116  C   GLY A   5     -10.658  23.588  42.940  0.00  0.00    +0.243 C 
ATOM    117  O   GLY A   5     -10.812  23.335  44.139  0.00  0.00    -0.273 OA
ATOM    118  H   SER A   6      -9.414  23.712  41.315  0.00  0.00    +0.150 HD
BRANCH 116 119
ATOM    119  CA  GLY A   5     -11.843  23.988  42.083  0.00  0.00    +0.176 C 
BRANCH 119 120
ATOM    120  N   GLY A   5     -13.022  24.027  42.923  0.00  0.00    -0.295 N 
ATOM    121  H   GLY A   5     -12.969  23.630  43.883  0.00  0.00    +0.150 HD
ATOM    122  C   TRP A   4     -14.168  24.553  42.507  0.00  0.00    +0.241 C 
ATOM    123  O   TRP A   4     -14.325  25.052  41.396  0.00  0.00    -0.273 OA
BRANCH 122 124
ATOM    124  CA  TRP A   4     -15.302  24.492  43.520  0.00  0.00    +0.153 C 
BRANCH 124 125
ATOM    125  N   TRP A   4     -16.606  24.910  43.014  0.00  0.00    -0.297 N 
ATOM    126  C   SER A   3     -17.541  25.306  43.871  0.00  0.00    +0.243 C 
ATOM    127  O   SER A   3     -17.337  25.343  45.085  0.00  0.00    -0.273 OA
ATOM    128  H   TRP A   4     -16.801  24.898  41.993  0.00  0.00    +0.150 HD
BRANCH 126 129
ATOM    129  CA  SER A   3     -18.903  25.711  43.302  0.00  0.00    +0.178 C 
BRANCH 129 130
ATOM    130  N   SER A   3     -18.914  26.896  42.456  0.00  0.00    -0.295 N 
ATOM    131  C   VAL A   2     -19.595  27.980  42.816  0.00  0.00    +0.241 C 
ATOM    132  O   VAL A   2     -20.199  28.056  43.886  0.00  0.00    -0.273 OA
ATOM    133  H   SER A   3     -18.384  26.895  41.561  0.00  0.00    +0.150 HD
BRANCH 131 134
ATOM    134  CA  VAL A   2     -19.590  29.158  41.842  0.00  0.00    +0.148 C 
BRANCH 134 135
ATOM    135  N   VAL A   2     -20.969  29.403  41.427  0.00  0.00    -0.297 N 
ATOM    136  H   VAL A   2     -21.398  30.335  41.595  0.00  0.00    +0.150 HD
ATOM    137  C   ILE A   1     -21.681  28.450  40.838  0.00  0.00    +0.238 C 
ATOM    138  O   ILE A   1     -21.221  27.336  40.591  0.00  0.00    -0.274 OA
BRANCH 137 139
ATOM    139  CA  ILE A   1     -23.121  28.791  40.450  0.00  0.00    +0.145 C 
BRANCH 139 140
ATOM    140  CB  ILE A   1     -24.080  27.960  41.325  0.00  0.00    +0.025 C 
ATOM    141  CG2 ILE A   1     -23.890  28.327  42.804  0.00  0.00    +0.002 C 
BRANCH 140 142
ATOM    142  CG1 ILE A   1     -25.528  28.210  40.891  0.00  0.00    +0.002 C 
ATOM    143  CD1 ILE A   1     -26.531  27.286  41.553  0.00  0.00    +0.000 C 
ENDBRANCH 140 142
ENDBRANCH 139 140
BRANCH 139 144
ATOM    144  N   ILE A   1     -23.248  28.434  39.048  0.00  0.00    -0.238 NA
ATOM    145  H   ILE A   1     -22.982  27.473  38.754  0.00  0.00    +0.142 HD
ENDBRANCH 139 144
ENDBRANCH 137 139
ENDBRANCH 134 135
BRANCH 134 146
ATOM    146  CB  VAL A   2     -18.993  30.398  42.541  0.00  0.00    +0.027 C 
ATOM    147  CG2 VAL A   2     -17.546  30.125  42.938  0.00  0.00    +0.002 C 
ATOM    148  CG1 VAL A   2     -19.082  31.611  41.617  0.00  0.00    +0.002 C 
ENDBRANCH 134 146
ENDBRANCH 131 134
ENDBRANCH 129 130
BRANCH 129 149
ATOM    149  CB  SER A   3     -19.519  24.535  42.533  0.00  0.00    +0.166 C 
BRANCH 149 150
ATOM    150  OG  SER A   3     -19.583  23.369  43.332  0.00  0.00    -0.380 OA
ATOM    151  H   SER A   3     -20.140  23.548  44.131  0.00  0.00    +0.211 HD
ENDBRANCH 149 150
ENDBRANCH 129 149
ENDBRANCH 126 129
ENDBRANCH 124 125
BRANCH 124 152
ATOM    152  CB  TRP A   4     -15.374  23.062  44.068  0.00  0.00    +0.057 C 
BRANCH 152 153
ATOM    153  CG  TRP A   4     -15.729  22.018  43.035  0.00  0.00    -0.002 A 
ATOM    154  CD1 TRP A   4     -16.966  21.759  42.516  0.00  0.00    +0.068 A 
ATOM    155  NE1 TRP A   4     -16.889  20.750  41.583  0.00  0.00    -0.352 N 
ATOM    156  CE2 TRP A   4     -15.586  20.338  41.480  0.00  0.00    +0.056 A 
ATOM    157  CZ2 TRP A   4     -15.013  19.347  40.670  0.00  0.00    +0.017 A 
ATOM    158  CH2 TRP A   4     -13.658  19.144  40.778  0.00  0.00    +0.001 A 
ATOM    159  CZ3 TRP A   4     -12.873  19.898  41.663  0.00  0.00    +0.000 A 
ATOM    160  CE3 TRP A   4     -13.445  20.887  42.470  0.00  0.00    +0.001 A 
ATOM    161  HE1 TRP A   4     -17.690  20.363  41.044  0.00  0.00    +0.166 HD
ATOM    162  CD2 TRP A   4     -14.825  21.114  42.381  0.00  0.00    +0.013 A 
ENDBRANCH 152 153
ENDBRANCH 124 152
ENDBRANCH 122 124
ENDBRANCH 119 120
ENDBRANCH 116 119
ENDBRANCH 114 115
BRANCH 114 163
ATOM    163  CB  SER A   6      -7.452  22.131  42.299  0.00  0.00    +0.166 C 
BRANCH 163 164
ATOM    164  OG  SER A   6      -6.279  21.779  43.011  0.00  0.00    -0.380 OA
ATOM    165  H   SER A   6      -5.769  21.107  42.493  0.00  0.00    +0.211 HD
ENDBRANCH 163 164
ENDBRANCH 114 163
ENDBRANCH 112 114
ENDBRANCH 109 110
ENDBRANCH 107 109
ENDBRANCH  84 105
ENDBRANCH   1  84
TORSDOF 73
REMARK  Name = ../refined-set-2016/2bza/2bza_pocket.pdb
REMARK  117 active torsions:
REMARK  status: ('A' for Active; 'I' for Inactive)
REMARK    1  A    between atoms: _1  and  _5
REMARK    2  A    between atoms: _5  and  _6
REMARK    3  A    between atoms: _5  and  _8
REMARK    4  A    between atoms: _8  and  _9
REMARK    5  A    between atoms: _12  and  _14
REMARK    6  A    between atoms: _14  and  _15
REMARK    7  A    between atoms: _14  and  _17
REMARK    8  A    between atoms: _20  and  _22
REMARK    9  A    between atoms: _22  and  _23
REMARK   10  A    between atoms: _22  and  _25
REMARK   11  A    between atoms: _25  and  _26
REMARK   12  A    between atoms: _31  and  _33
REMARK   13  A    between atoms: _33  and  _34
REMARK   14  A    between atoms: _33  and  _36
REMARK   15  A    between atoms: _36  and  _37
REMARK   16  A    between atoms: _40  and  _42
REMARK   17  A    between atoms: _42  and  _43
REMARK   18  A    between atoms: _42  and  _45
REMARK   19  A    between atoms: _45  and  _46
REMARK   20  A    between atoms: _51  and  _53
REMARK   21  A    between atoms: _53  and  _54
REMARK   22  A    between atoms: _53  and  _56
REMARK   23  A    between atoms: _56  and  _57
REMARK   24  A    between atoms: _62  and  _63
REMARK   25  A    between atoms: _65  and  _67
REMARK   26  A    between atoms: _67  and  _68
REMARK   27  A    between atoms: _71  and  _73
REMARK   28  A    between atoms: _73  and  _74
REMARK   29  A    between atoms: _73  and  _76
REMARK   30  A    between atoms: _76  and  _77
REMARK   31  A    between atoms: _77  and  _78
REMARK   32  A    between atoms: _78  and  _79
REMARK   33  A    between atoms: _79  and  _80
REMARK   34  A    between atoms: _84  and  _86
REMARK   35  A    between atoms: _86  and  _87
REMARK   36  A    between atoms: _86  and  _89
REMARK   37  A    between atoms: _89  and  _90
REMARK   38  A    between atoms: _93  and  _95
REMARK   39  A    between atoms: _95  and  _96
REMARK   40  A    between atoms: _95  and  _98
REMARK   41  A    between atoms: _98  and  _99
REMARK   42  A    between atoms: _101  and  _103
REMARK   43  A    between atoms: _103  and  _104
REMARK   44  A    between atoms: _103  and  _106
REMARK   45  A    between atoms: _106  and  _107
REMARK   46  A    between atoms: _107  and  _217
REMARK   47  A    between atoms: _108  and  _110
REMARK   48  A    between atoms: _110  and  _111
REMARK   49  A    between atoms: _110  and  _113
REMARK   50  A    between atoms: _113  and  _114
REMARK   51  A    between atoms: _114  and  _115
REMARK   52  A    between atoms: _120  and  _122
REMARK   53  A    between atoms: _122  and  _123
REMARK   54  A    between atoms: _125  and  _127
REMARK   55  A    between atoms: _127  and  _128
REMARK   56  A    between atoms: _127  and  _130
REMARK   57  A    between atoms: _130  and  _131
REMARK   58  A    between atoms: _134  and  _136
REMARK   59  A    between atoms: _136  and  _137
REMARK   60  A    between atoms: _136  and  _139
REMARK   61  A    between atoms: _139  and  _140
REMARK   62  A    between atoms: _142  and  _144
REMARK   63  A    between atoms: _144  and  _145
REMARK   64  A    between atoms: _147  and  _149
REMARK   65  A    between atoms: _149  and  _150
REMARK   66  A    between atoms: _152  and  _154
REMARK   67  A    between atoms: _154  and  _155
REMARK   68  A    between atoms: _154  and  _157
REMARK   69  A    between atoms: _157  and  _158
REMARK   70  A    between atoms: _161  and  _163
REMARK   71  A    between atoms: _163  and  _164
REMARK   72  A    between atoms: _163  and  _166
REMARK   73  A    between atoms: _169  and  _171
REMARK   74  A    between atoms: _171  and  _172
REMARK   75  A    between atoms: _171  and  _174
REMARK   76  A    between atoms: _174  and  _175
REMARK   77  A    between atoms: _177  and  _179
REMARK   78  A    between atoms: _179  and  _180
REMARK   79  A    between atoms: _179  and  _182
REMARK   80  A    between atoms: _182  and  _183
REMARK   81  A    between atoms: _193  and  _195
REMARK   82  A    between atoms: _195  and  _196
REMARK   83  A    between atoms: _198  and  _200
REMARK   84  A    between atoms: _200  and  _201
REMARK   85  A    between atoms: _200  and  _203
REMARK   86  A    between atoms: _203  and  _204
REMARK   87  A    between atoms: _206  and  _208
REMARK   88  A    between atoms: _208  and  _209
REMARK   89  A    between atoms: _211  and  _213
REMARK   90  A    between atoms: _213  and  _214
REMARK   91  A    between atoms: _213  and  _216
REMARK   92  A    between atoms: _216  and  _217
REMARK   93  A    between atoms: _218  and  _220
REMARK   94  A    between atoms: _220  and  _221
REMARK   95  A    between atoms: _224  and  _226
REMARK   96  A    between atoms: _226  and  _227
REMARK   97  A    between atoms: _226  and  _229
REMARK   98  A    between atoms: _229  and  _230
REMARK   99  A    between atoms: _230  and  _231
REMARK  100  A    between atoms: _236  and  _238
REMARK  101  A    between atoms: _238  and  _239
REMARK  102  A    between atoms: _238  and  _241
REMARK  103  A    between atoms: _241  and  _242
REMARK  104  A    between atoms: _242  and  _243
REMARK  105  A    between atoms: _243  and  _244
REMARK  106  A    between atoms: _244  and  _245
REMARK  107  A    between atoms: _250  and  _251
REMARK  108  A    between atoms: _256  and  _258
REMARK  109  A    between atoms: _258  and  _259
REMARK  110  A    between atoms: _261  and  _263
REMARK  111  A    between atoms: _263  and  _264
REMARK  112  A    between atoms: _263  and  _266
REMARK  113  A    between atoms: _269  and  _271
REMARK  114  A    between atoms: _271  and  _272
REMARK  115  A    between atoms: _271  and  _274
REMARK  116  A    between atoms: _274  and  _275
REMARK  117  A    between atoms: _280  and  _281
REMARK                            x       y       z     vdW  Elec       q    Type
REMARK                         _______ _______ _______ _____ _____    ______ ____
ROOT
ATOM      1  C   GLY A   3     -14.029  26.037  37.882  0.00  0.00    +0.243 C 
ATOM      2  N   VAL A   4     -14.719  25.358  38.795  0.00  0.00    -0.297 N 
ATOM      3  H   VAL A   4     -14.491  25.484  39.802  0.00  0.00    +0.150 HD
ATOM      4  O   GLY A   3     -14.218  25.910  36.673  0.00  0.00    -0.273 OA
ENDROOT
BRANCH   1   5
ATOM      5  CA  GLY A   3     -12.954  26.977  38.396  0.00  0.00    +0.176 C 
BRANCH   5   8
ATOM      6  C   PRO A   2     -11.030  26.122  37.224  0.00  0.00    +0.241 C 
ATOM      7  O   PRO A   2     -11.078  25.066  37.853  0.00  0.00    -0.273 OA
ATOM      8  N   GLY A   3     -11.888  27.116  37.422  0.00  0.00    -0.295 N 
ATOM      9  H   GLY A   3     -11.795  27.997  36.877  0.00  0.00    +0.150 HD
BRANCH   6  13
ATOM     10  C   LYS A   1      -8.013  25.349  37.289  0.00  0.00    +0.241 C 
ATOM     11  O   LYS A   1      -8.107  26.132  38.234  0.00  0.00    -0.273 OA
ATOM     12  N   PRO A   2      -8.858  25.388  36.251  0.00  0.00    -0.272 N 
ATOM     13  CA  PRO A   2      -9.957  26.352  36.157  0.00  0.00    +0.152 C 
ATOM     14  CB  PRO A   2     -10.484  26.108  34.747  0.00  0.00    +0.031 C 
ATOM     15  CG  PRO A   2     -10.287  24.607  34.608  0.00  0.00    +0.024 C 
ATOM     16  CD  PRO A   2      -8.844  24.525  35.056  0.00  0.00    +0.094 C 
BRANCH  10  17
ATOM     17  CA  LYS A   1      -6.914  24.289  37.249  0.00  0.00    +0.145 C 
BRANCH  17  18
ATOM     18  N   LYS A   1      -5.930  24.637  36.231  0.00  0.00    -0.238 NA
ATOM     19  H   LYS A   1      -5.572  25.612  36.183  0.00  0.00    +0.142 HD
ENDBRANCH  17  18
BRANCH  17  20
ATOM     20  CB  LYS A   1      -6.246  24.176  38.623  0.00  0.00    +0.026 C 
BRANCH  20  21
ATOM     21  CG  LYS A   1      -5.248  23.033  38.738  0.00  0.00    -0.000 C 
BRANCH  21  22
ATOM     22  CD  LYS A   1      -5.932  21.686  38.539  0.00  0.00    -0.024 C 
BRANCH  22  23
ATOM     23  CE  LYS A   1      -4.940  20.536  38.651  0.00  0.00    -0.086 C 
BRANCH  23  24
ATOM     24  NZ  LYS A   1      -5.594  19.208  38.466  0.00  0.00    +0.380 N 
ATOM     25  HZ1 LYS A   1      -6.324  19.078  39.195  0.00  0.00    -0.089 HD
ATOM     26  HZ2 LYS A   1      -4.880  18.457  38.551  0.00  0.00    -0.089 HD
ATOM     27  HZ3 LYS A   1      -6.032  19.167  37.524  0.00  0.00    -0.089 HD
ENDBRANCH  23  24
ENDBRANCH  22  23
ENDBRANCH  21  22
ENDBRANCH  20  21
ENDBRANCH  17  20
ENDBRANCH  10  17
ENDBRANCH   6  13
ENDBRANCH   5   8
ENDBRANCH   1   5
BRANCH   2  28
ATOM     28  CA  VAL A   4     -15.790  24.439  38.416  0.00  0.00    +0.149 C 
BRANCH  28  29
ATOM     29  C   VAL A   4     -17.105  25.032  38.918  0.00  0.00    +0.241 C 
ATOM     30  O   VAL A   4     -17.185  25.529  40.048  0.00  0.00    -0.273 OA
ATOM     31  N   TYR A   5     -18.132  24.963  38.077  0.00  0.00    -0.298 N 
ATOM     32  H   TYR A   5     -18.009  24.467  37.171  0.00  0.00    +0.150 HD
BRANCH  31  33
ATOM     33  CA  TYR A   5     -19.426  25.561  38.386  0.00  0.00    +0.141 C 
BRANCH  33  34
ATOM     34  C   TYR A   5     -20.611  24.627  38.198  0.00  0.00    +0.227 C 
ATOM     35  O   TYR A   5     -20.601  23.761  37.325  0.00  0.00    -0.286 OA
ENDBRANCH  33  34
BRANCH  33  36
ATOM     36  CB  TYR A   5     -19.607  26.790  37.491  0.00  0.00    +0.054 C 
BRANCH  36  37
ATOM     37  CG  TYR A   5     -18.483  27.791  37.640  0.00  0.00    -0.020 A 
ATOM     38  CD2 TYR A   5     -18.557  28.813  38.579  0.00  0.00    -0.001 A 
ATOM     39  CE2 TYR A   5     -17.484  29.685  38.785  0.00  0.00    +0.036 A 
ATOM     40  CZ  TYR A   5     -16.322  29.531  38.046  0.00  0.00    +0.134 A 
ATOM     41  CE1 TYR A   5     -16.224  28.522  37.098  0.00  0.00    +0.036 A 
ATOM     42  CD1 TYR A   5     -17.305  27.659  36.899  0.00  0.00    -0.001 A 
BRANCH  40  43
ATOM     43  OH  TYR A   5     -15.261  30.373  38.273  0.00  0.00    -0.506 OA
ATOM     44  HH  TYR A   5     -14.515  30.132  37.668  0.00  0.00    +0.292 HD
ENDBRANCH  40  43
ENDBRANCH  36  37
ENDBRANCH  33  36
ENDBRANCH  31  33
ENDBRANCH  28  29
BRANCH  28  45
ATOM     45  CB  VAL A   4     -15.570  23.036  39.012  0.00  0.00    +0.027 C 
ATOM     46  CG2 VAL A   4     -14.184  22.523  38.629  0.00  0.00    +0.002 C 
ATOM     47  CG1 VAL A   4     -16.641  22.081  38.500  0.00  0.00    +0.002 C 
ENDBRANCH  28  45
ENDBRANCH   2  28
TORSDOF 18
REMARK  Name = ../refined-set-2016/2bza/2bza_pocket.pdb
REMARK  117 active torsions:
REMARK  status: ('A' for Active; 'I' for Inactive)
REMARK    1  A    between atoms: _1  and  _5
REMARK    2  A    between atoms: _5  and  _6
REMARK    3  A    between atoms: _5  and  _8
REMARK    4  A    between atoms: _8  and  _9
REMARK    5  A    between atoms: _12  and  _14
REMARK    6  A    between atoms: _14  and  _15
REMARK    7  A    between atoms: _14  and  _17
REMARK    8  A    between atoms: _20  and  _22
REMARK    9  A    between atoms: _22  and  _23
REMARK   10  A    between atoms: _22  and  _25
REMARK   11  A    between atoms: _25  and  _26
REMARK   12  A    between atoms: _31  and  _33
REMARK   13  A    between atoms: _33  and  _34
REMARK   14  A    between atoms: _33  and  _36
REMARK   15  A    between atoms: _36  and  _37
REMARK   16  A    between atoms: _40  and  _42
REMARK   17  A    between atoms: _42  and  _43
REMARK   18  A    between atoms: _42  and  _45
REMARK   19  A    between atoms: _45  and  _46
REMARK   20  A    between atoms: _51  and  _53
REMARK   21  A    between atoms: _53  and  _54
REMARK   22  A    between atoms: _53  and  _56
REMARK   23  A    between atoms: _56  and  _57
REMARK   24  A    between atoms: _62  and  _63
REMARK   25  A    between atoms: _65  and  _67
REMARK   26  A    between atoms: _67  and  _68
REMARK   27  A    between atoms: _71  and  _73
REMARK   28  A    between atoms: _73  and  _74
REMARK   29  A    between atoms: _73  and  _76
REMARK   30  A    between atoms: _76  and  _77
REMARK   31  A    between atoms: _77  and  _78
REMARK   32  A    between atoms: _78  and  _79
REMARK   33  A    between atoms: _79  and  _80
REMARK   34  A    between atoms: _84  and  _86
REMARK   35  A    between atoms: _86  and  _87
REMARK   36  A    between atoms: _86  and  _89
REMARK   37  A    between atoms: _89  and  _90
REMARK   38  A    between atoms: _93  and  _95
REMARK   39  A    between atoms: _95  and  _96
REMARK   40  A    between atoms: _95  and  _98
REMARK   41  A    between atoms: _98  and  _99
REMARK   42  A    between atoms: _101  and  _103
REMARK   43  A    between atoms: _103  and  _104
REMARK   44  A    between atoms: _103  and  _106
REMARK   45  A    between atoms: _106  and  _107
REMARK   46  A    between atoms: _107  and  _217
REMARK   47  A    between atoms: _108  and  _110
REMARK   48  A    between atoms: _110  and  _111
REMARK   49  A    between atoms: _110  and  _113
REMARK   50  A    between atoms: _113  and  _114
REMARK   51  A    between atoms: _114  and  _115
REMARK   52  A    between atoms: _120  and  _122
REMARK   53  A    between atoms: _122  and  _123
REMARK   54  A    between atoms: _125  and  _127
REMARK   55  A    between atoms: _127  and  _128
REMARK   56  A    between atoms: _127  and  _130
REMARK   57  A    between atoms: _130  and  _131
REMARK   58  A    between atoms: _134  and  _136
REMARK   59  A    between atoms: _136  and  _137
REMARK   60  A    between atoms: _136  and  _139
REMARK   61  A    between atoms: _139  and  _140
REMARK   62  A    between atoms: _142  and  _144
REMARK   63  A    between atoms: _144  and  _145
REMARK   64  A    between atoms: _147  and  _149
REMARK   65  A    between atoms: _149  and  _150
REMARK   66  A    between atoms: _152  and  _154
REMARK   67  A    between atoms: _154  and  _155
REMARK   68  A    between atoms: _154  and  _157
REMARK   69  A    between atoms: _157  and  _158
REMARK   70  A    between atoms: _161  and  _163
REMARK   71  A    between atoms: _163  and  _164
REMARK   72  A    between atoms: _163  and  _166
REMARK   73  A    between atoms: _169  and  _171
REMARK   74  A    between atoms: _171  and  _172
REMARK   75  A    between atoms: _171  and  _174
REMARK   76  A    between atoms: _174  and  _175
REMARK   77  A    between atoms: _177  and  _179
REMARK   78  A    between atoms: _179  and  _180
REMARK   79  A    between atoms: _179  and  _182
REMARK   80  A    between atoms: _182  and  _183
REMARK   81  A    between atoms: _193  and  _195
REMARK   82  A    between atoms: _195  and  _196
REMARK   83  A    between atoms: _198  and  _200
REMARK   84  A    between atoms: _200  and  _201
REMARK   85  A    between atoms: _200  and  _203
REMARK   86  A    between atoms: _203  and  _204
REMARK   87  A    between atoms: _206  and  _208
REMARK   88  A    between atoms: _208  and  _209
REMARK   89  A    between atoms: _211  and  _213
REMARK   90  A    between atoms: _213  and  _214
REMARK   91  A    between atoms: _213  and  _216
REMARK   92  A    between atoms: _216  and  _217
REMARK   93  A    between atoms: _218  and  _220
REMARK   94  A    between atoms: _220  and  _221
REMARK   95  A    between atoms: _224  and  _226
REMARK   96  A    between atoms: _226  and  _227
REMARK   97  A    between atoms: _226  and  _229
REMARK   98  A    between atoms: _229  and  _230
REMARK   99  A    between atoms: _230  and  _231
REMARK  100  A    between atoms: _236  and  _238
REMARK  101  A    between atoms: _238  and  _239
REMARK  102  A    between atoms: _238  and  _241
REMARK  103  A    between atoms: _241  and  _242
REMARK  104  A    between atoms: _242  and  _243
REMARK  105  A    between atoms: _243  and  _244
REMARK  106  A    between atoms: _244  and  _245
REMARK  107  A    between atoms: _250  and  _251
REMARK  108  A    between atoms: _256  and  _258
REMARK  109  A    between atoms: _258  and  _259
REMARK  110  A    between atoms: _261  and  _263
REMARK  111  A    between atoms: _263  and  _264
REMARK  112  A    between atoms: _263  and  _266
REMARK  113  A    between atoms: _269  and  _271
REMARK  114  A    between atoms: _271  and  _272
REMARK  115  A    between atoms: _271  and  _274
REMARK  116  A    between atoms: _274  and  _275
REMARK  117  A    between atoms: _280  and  _281
REMARK                            x       y       z     vdW  Elec       q    Type
REMARK                         _______ _______ _______ _____ _____    ______ ____
ROOT
ATOM      1  O   HOH     1     -13.045  30.522  36.973  0.00  0.00    +0.000 OA
ENDROOT
TORSDOF 0
REMARK  Name = ../refined-set-2016/2bza/2bza_pocket.pdb
REMARK  117 active torsions:
REMARK  status: ('A' for Active; 'I' for Inactive)
REMARK    1  A    between atoms: _1  and  _5
REMARK    2  A    between atoms: _5  and  _6
REMARK    3  A    between atoms: _5  and  _8
REMARK    4  A    between atoms: _8  and  _9
REMARK    5  A    between atoms: _12  and  _14
REMARK    6  A    between atoms: _14  and  _15
REMARK    7  A    between atoms: _14  and  _17
REMARK    8  A    between atoms: _20  and  _22
REMARK    9  A    between atoms: _22  and  _23
REMARK   10  A    between atoms: _22  and  _25
REMARK   11  A    between atoms: _25  and  _26
REMARK   12  A    between atoms: _31  and  _33
REMARK   13  A    between atoms: _33  and  _34
REMARK   14  A    between atoms: _33  and  _36
REMARK   15  A    between atoms: _36  and  _37
REMARK   16  A    between atoms: _40  and  _42
REMARK   17  A    between atoms: _42  and  _43
REMARK   18  A    between atoms: _42  and  _45
REMARK   19  A    between atoms: _45  and  _46
REMARK   20  A    between atoms: _51  and  _53
REMARK   21  A    between atoms: _53  and  _54
REMARK   22  A    between atoms: _53  and  _56
REMARK   23  A    between atoms: _56  and  _57
REMARK   24  A    between atoms: _62  and  _63
REMARK   25  A    between atoms: _65  and  _67
REMARK   26  A    between atoms: _67  and  _68
REMARK   27  A    between atoms: _71  and  _73
REMARK   28  A    between atoms: _73  and  _74
REMARK   29  A    between atoms: _73  and  _76
REMARK   30  A    between atoms: _76  and  _77
REMARK   31  A    between atoms: _77  and  _78
REMARK   32  A    between atoms: _78  and  _79
REMARK   33  A    between atoms: _79  and  _80
REMARK   34  A    between atoms: _84  and  _86
REMARK   35  A    between atoms: _86  and  _87
REMARK   36  A    between atoms: _86  and  _89
REMARK   37  A    between atoms: _89  and  _90
REMARK   38  A    between atoms: _93  and  _95
REMARK   39  A    between atoms: _95  and  _96
REMARK   40  A    between atoms: _95  and  _98
REMARK   41  A    between atoms: _98  and  _99
REMARK   42  A    between atoms: _101  and  _103
REMARK   43  A    between atoms: _103  and  _104
REMARK   44  A    between atoms: _103  and  _106
REMARK   45  A    between atoms: _106  and  _107
REMARK   46  A    between atoms: _107  and  _217
REMARK   47  A    between atoms: _108  and  _110
REMARK   48  A    between atoms: _110  and  _111
REMARK   49  A    between atoms: _110  and  _113
REMARK   50  A    between atoms: _113  and  _114
REMARK   51  A    between atoms: _114  and  _115
REMARK   52  A    between atoms: _120  and  _122
REMARK   53  A    between atoms: _122  and  _123
REMARK   54  A    between atoms: _125  and  _127
REMARK   55  A    between atoms: _127  and  _128
REMARK   56  A    between atoms: _127  and  _130
REMARK   57  A    between atoms: _130  and  _131
REMARK   58  A    between atoms: _134  and  _136
REMARK   59  A    between atoms: _136  and  _137
REMARK   60  A    between atoms: _136  and  _139
REMARK   61  A    between atoms: _139  and  _140
REMARK   62  A    between atoms: _142  and  _144
REMARK   63  A    between atoms: _144  and  _145
REMARK   64  A    between atoms: _147  and  _149
REMARK   65  A    between atoms: _149  and  _150
REMARK   66  A    between atoms: _152  and  _154
REMARK   67  A    between atoms: _154  and  _155
REMARK   68  A    between atoms: _154  and  _157
REMARK   69  A    between atoms: _157  and  _158
REMARK   70  A    between atoms: _161  and  _163
REMARK   71  A    between atoms: _163  and  _164
REMARK   72  A    between atoms: _163  and  _166
REMARK   73  A    between atoms: _169  and  _171
REMARK   74  A    between atoms: _171  and  _172
REMARK   75  A    between atoms: _171  and  _174
REMARK   76  A    between atoms: _174  and  _175
REMARK   77  A    between atoms: _177  and  _179
REMARK   78  A    between atoms: _179  and  _180
REMARK   79  A    between atoms: _179  and  _182
REMARK   80  A    between atoms: _182  and  _183
REMARK   81  A    between atoms: _193  and  _195
REMARK   82  A    between atoms: _195  and  _196
REMARK   83  A    between atoms: _198  and  _200
REMARK   84  A    between atoms: _200  and  _201
REMARK   85  A    between atoms: _200  and  _203
REMARK   86  A    between atoms: _203  and  _204
REMARK   87  A    between atoms: _206  and  _208
REMARK   88  A    between atoms: _208  and  _209
REMARK   89  A    between atoms: _211  and  _213
REMARK   90  A    between atoms: _213  and  _214
REMARK   91  A    between atoms: _213  and  _216
REMARK   92  A    between atoms: _216  and  _217
REMARK   93  A    between atoms: _218  and  _220
REMARK   94  A    between atoms: _220  and  _221
REMARK   95  A    between atoms: _224  and  _226
REMARK   96  A    between atoms: _226  and  _227
REMARK   97  A    between atoms: _226  and  _229
REMARK   98  A    between atoms: _229  and  _230
REMARK   99  A    between atoms: _230  and  _231
REMARK  100  A    between atoms: _236  and  _238
REMARK  101  A    between atoms: _238  and  _239
REMARK  102  A    between atoms: _238  and  _241
REMARK  103  A    between atoms: _241  and  _242
REMARK  104  A    between atoms: _242  and  _243
REMARK  105  A    between atoms: _243  and  _244
REMARK  106  A    between atoms: _244  and  _245
REMARK  107  A    between atoms: _250  and  _251
REMARK  108  A    between atoms: _256  and  _258
REMARK  109  A    between atoms: _258  and  _259
REMARK  110  A    between atoms: _261  and  _263
REMARK  111  A    between atoms: _263  and  _264
REMARK  112  A    between atoms: _263  and  _266
REMARK  113  A    between atoms: _269  and  _271
REMARK  114  A    between atoms: _271  and  _272
REMARK  115  A    between atoms: _271  and  _274
REMARK  116  A    between atoms: _274  and  _275
REMARK  117  A    between atoms: _280  and  _281
REMARK                            x       y       z     vdW  Elec       q    Type
REMARK                         _______ _______ _______ _____ _____    ______ ____
ROOT
ATOM      1  O   HOH     1      -9.796  26.332  40.734  0.00  0.00    +0.000 OA
ENDROOT
TORSDOF 0
REMARK  Name = ../refined-set-2016/2bza/2bza_pocket.pdb
REMARK  117 active torsions:
REMARK  status: ('A' for Active; 'I' for Inactive)
REMARK    1  A    between atoms: _1  and  _5
REMARK    2  A    between atoms: _5  and  _6
REMARK    3  A    between atoms: _5  and  _8
REMARK    4  A    between atoms: _8  and  _9
REMARK    5  A    between atoms: _12  and  _14
REMARK    6  A    between atoms: _14  and  _15
REMARK    7  A    between atoms: _14  and  _17
REMARK    8  A    between atoms: _20  and  _22
REMARK    9  A    between atoms: _22  and  _23
REMARK   10  A    between atoms: _22  and  _25
REMARK   11  A    between atoms: _25  and  _26
REMARK   12  A    between atoms: _31  and  _33
REMARK   13  A    between atoms: _33  and  _34
REMARK   14  A    between atoms: _33  and  _36
REMARK   15  A    between atoms: _36  and  _37
REMARK   16  A    between atoms: _40  and  _42
REMARK   17  A    between atoms: _42  and  _43
REMARK   18  A    between atoms: _42  and  _45
REMARK   19  A    between atoms: _45  and  _46
REMARK   20  A    between atoms: _51  and  _53
REMARK   21  A    between atoms: _53  and  _54
REMARK   22  A    between atoms: _53  and  _56
REMARK   23  A    between atoms: _56  and  _57
REMARK   24  A    between atoms: _62  and  _63
REMARK   25  A    between atoms: _65  and  _67
REMARK   26  A    between atoms: _67  and  _68
REMARK   27  A    between atoms: _71  and  _73
REMARK   28  A    between atoms: _73  and  _74
REMARK   29  A    between atoms: _73  and  _76
REMARK   30  A    between atoms: _76  and  _77
REMARK   31  A    between atoms: _77  and  _78
REMARK   32  A    between atoms: _78  and  _79
REMARK   33  A    between atoms: _79  and  _80
REMARK   34  A    between atoms: _84  and  _86
REMARK   35  A    between atoms: _86  and  _87
REMARK   36  A    between atoms: _86  and  _89
REMARK   37  A    between atoms: _89  and  _90
REMARK   38  A    between atoms: _93  and  _95
REMARK   39  A    between atoms: _95  and  _96
REMARK   40  A    between atoms: _95  and  _98
REMARK   41  A    between atoms: _98  and  _99
REMARK   42  A    between atoms: _101  and  _103
REMARK   43  A    between atoms: _103  and  _104
REMARK   44  A    between atoms: _103  and  _106
REMARK   45  A    between atoms: _106  and  _107
REMARK   46  A    between atoms: _107  and  _217
REMARK   47  A    between atoms: _108  and  _110
REMARK   48  A    between atoms: _110  and  _111
REMARK   49  A    between atoms: _110  and  _113
REMARK   50  A    between atoms: _113  and  _114
REMARK   51  A    between atoms: _114  and  _115
REMARK   52  A    between atoms: _120  and  _122
REMARK   53  A    between atoms: _122  and  _123
REMARK   54  A    between atoms: _125  and  _127
REMARK   55  A    between atoms: _127  and  _128
REMARK   56  A    between atoms: _127  and  _130
REMARK   57  A    between atoms: _130  and  _131
REMARK   58  A    between atoms: _134  and  _136
REMARK   59  A    between atoms: _136  and  _137
REMARK   60  A    between atoms: _136  and  _139
REMARK   61  A    between atoms: _139  and  _140
REMARK   62  A    between atoms: _142  and  _144
REMARK   63  A    between atoms: _144  and  _145
REMARK   64  A    between atoms: _147  and  _149
REMARK   65  A    between atoms: _149  and  _150
REMARK   66  A    between atoms: _152  and  _154
REMARK   67  A    between atoms: _154  and  _155
REMARK   68  A    between atoms: _154  and  _157
REMARK   69  A    between atoms: _157  and  _158
REMARK   70  A    between atoms: _161  and  _163
REMARK   71  A    between atoms: _163  and  _164
REMARK   72  A    between atoms: _163  and  _166
REMARK   73  A    between atoms: _169  and  _171
REMARK   74  A    between atoms: _171  and  _172
REMARK   75  A    between atoms: _171  and  _174
REMARK   76  A    between atoms: _174  and  _175
REMARK   77  A    between atoms: _177  and  _179
REMARK   78  A    between atoms: _179  and  _180
REMARK   79  A    between atoms: _179  and  _182
REMARK   80  A    between atoms: _182  and  _183
REMARK   81  A    between atoms: _193  and  _195
REMARK   82  A    between atoms: _195  and  _196
REMARK   83  A    between atoms: _198  and  _200
REMARK   84  A    between atoms: _200  and  _201
REMARK   85  A    between atoms: _200  and  _203
REMARK   86  A    between atoms: _203  and  _204
REMARK   87  A    between atoms: _206  and  _208
REMARK   88  A    between atoms: _208  and  _209
REMARK   89  A    between atoms: _211  and  _213
REMARK   90  A    between atoms: _213  and  _214
REMARK   91  A    between atoms: _213  and  _216
REMARK   92  A    between atoms: _216  and  _217
REMARK   93  A    between atoms: _218  and  _220
REMARK   94  A    between atoms: _220  and  _221
REMARK   95  A    between atoms: _224  and  _226
REMARK   96  A    between atoms: _226  and  _227
REMARK   97  A    between atoms: _226  and  _229
REMARK   98  A    between atoms: _229  and  _230
REMARK   99  A    between atoms: _230  and  _231
REMARK  100  A    between atoms: _236  and  _238
REMARK  101  A    between atoms: _238  and  _239
REMARK  102  A    between atoms: _238  and  _241
REMARK  103  A    between atoms: _241  and  _242
REMARK  104  A    between atoms: _242  and  _243
REMARK  105  A    between atoms: _243  and  _244
REMARK  106  A    between atoms: _244  and  _245
REMARK  107  A    between atoms: _250  and  _251
REMARK  108  A    between atoms: _256  and  _258
REMARK  109  A    between atoms: _258  and  _259
REMARK  110  A    between atoms: _261  and  _263
REMARK  111  A    between atoms: _263  and  _264
REMARK  112  A    between atoms: _263  and  _266
REMARK  113  A    between atoms: _269  and  _271
REMARK  114  A    between atoms: _271  and  _272
REMARK  115  A    between atoms: _271  and  _274
REMARK  116  A    between atoms: _274  and  _275
REMARK  117  A    between atoms: _280  and  _281
REMARK                            x       y       z     vdW  Elec       q    Type
REMARK                         _______ _______ _______ _____ _____    ______ ____
ROOT
ATOM      1  O   HOH     1      -9.586  30.226  35.769  0.00  0.00    +0.000 OA
ENDROOT
TORSDOF 0
REMARK  Name = ../refined-set-2016/2bza/2bza_pocket.pdb
REMARK  117 active torsions:
REMARK  status: ('A' for Active; 'I' for Inactive)
REMARK    1  A    between atoms: _1  and  _5
REMARK    2  A    between atoms: _5  and  _6
REMARK    3  A    between atoms: _5  and  _8
REMARK    4  A    between atoms: _8  and  _9
REMARK    5  A    between atoms: _12  and  _14
REMARK    6  A    between atoms: _14  and  _15
REMARK    7  A    between atoms: _14  and  _17
REMARK    8  A    between atoms: _20  and  _22
REMARK    9  A    between atoms: _22  and  _23
REMARK   10  A    between atoms: _22  and  _25
REMARK   11  A    between atoms: _25  and  _26
REMARK   12  A    between atoms: _31  and  _33
REMARK   13  A    between atoms: _33  and  _34
REMARK   14  A    between atoms: _33  and  _36
REMARK   15  A    between atoms: _36  and  _37
REMARK   16  A    between atoms: _40  and  _42
REMARK   17  A    between atoms: _42  and  _43
REMARK   18  A    between atoms: _42  and  _45
REMARK   19  A    between atoms: _45  and  _46
REMARK   20  A    between atoms: _51  and  _53
REMARK   21  A    between atoms: _53  and  _54
REMARK   22  A    between atoms: _53  and  _56
REMARK   23  A    between atoms: _56  and  _57
REMARK   24  A    between atoms: _62  and  _63
REMARK   25  A    between atoms: _65  and  _67
REMARK   26  A    between atoms: _67  and  _68
REMARK   27  A    between atoms: _71  and  _73
REMARK   28  A    between atoms: _73  and  _74
REMARK   29  A    between atoms: _73  and  _76
REMARK   30  A    between atoms: _76  and  _77
REMARK   31  A    between atoms: _77  and  _78
REMARK   32  A    between atoms: _78  and  _79
REMARK   33  A    between atoms: _79  and  _80
REMARK   34  A    between atoms: _84  and  _86
REMARK   35  A    between atoms: _86  and  _87
REMARK   36  A    between atoms: _86  and  _89
REMARK   37  A    between atoms: _89  and  _90
REMARK   38  A    between atoms: _93  and  _95
REMARK   39  A    between atoms: _95  and  _96
REMARK   40  A    between atoms: _95  and  _98
REMARK   41  A    between atoms: _98  and  _99
REMARK   42  A    between atoms: _101  and  _103
REMARK   43  A    between atoms: _103  and  _104
REMARK   44  A    between atoms: _103  and  _106
REMARK   45  A    between atoms: _106  and  _107
REMARK   46  A    between atoms: _107  and  _217
REMARK   47  A    between atoms: _108  and  _110
REMARK   48  A    between atoms: _110  and  _111
REMARK   49  A    between atoms: _110  and  _113
REMARK   50  A    between atoms: _113  and  _114
REMARK   51  A    between atoms: _114  and  _115
REMARK   52  A    between atoms: _120  and  _122
REMARK   53  A    between atoms: _122  and  _123
REMARK   54  A    between atoms: _125  and  _127
REMARK   55  A    between atoms: _127  and  _128
REMARK   56  A    between atoms: _127  and  _130
REMARK   57  A    between atoms: _130  and  _131
REMARK   58  A    between atoms: _134  and  _136
REMARK   59  A    between atoms: _136  and  _137
REMARK   60  A    between atoms: _136  and  _139
REMARK   61  A    between atoms: _139  and  _140
REMARK   62  A    between atoms: _142  and  _144
REMARK   63  A    between atoms: _144  and  _145
REMARK   64  A    between atoms: _147  and  _149
REMARK   65  A    between atoms: _149  and  _150
REMARK   66  A    between atoms: _152  and  _154
REMARK   67  A    between atoms: _154  and  _155
REMARK   68  A    between atoms: _154  and  _157
REMARK   69  A    between atoms: _157  and  _158
REMARK   70  A    between atoms: _161  and  _163
REMARK   71  A    between atoms: _163  and  _164
REMARK   72  A    between atoms: _163  and  _166
REMARK   73  A    between atoms: _169  and  _171
REMARK   74  A    between atoms: _171  and  _172
REMARK   75  A    between atoms: _171  and  _174
REMARK   76  A    between atoms: _174  and  _175
REMARK   77  A    between atoms: _177  and  _179
REMARK   78  A    between atoms: _179  and  _180
REMARK   79  A    between atoms: _179  and  _182
REMARK   80  A    between atoms: _182  and  _183
REMARK   81  A    between atoms: _193  and  _195
REMARK   82  A    between atoms: _195  and  _196
REMARK   83  A    between atoms: _198  and  _200
REMARK   84  A    between atoms: _200  and  _201
REMARK   85  A    between atoms: _200  and  _203
REMARK   86  A    between atoms: _203  and  _204
REMARK   87  A    between atoms: _206  and  _208
REMARK   88  A    between atoms: _208  and  _209
REMARK   89  A    between atoms: _211  and  _213
REMARK   90  A    between atoms: _213  and  _214
REMARK   91  A    between atoms: _213  and  _216
REMARK   92  A    between atoms: _216  and  _217
REMARK   93  A    between atoms: _218  and  _220
REMARK   94  A    between atoms: _220  and  _221
REMARK   95  A    between atoms: _224  and  _226
REMARK   96  A    between atoms: _226  and  _227
REMARK   97  A    between atoms: _226  and  _229
REMARK   98  A    between atoms: _229  and  _230
REMARK   99  A    between atoms: _230  and  _231
REMARK  100  A    between atoms: _236  and  _238
REMARK  101  A    between atoms: _238  and  _239
REMARK  102  A    between atoms: _238  and  _241
REMARK  103  A    between atoms: _241  and  _242
REMARK  104  A    between atoms: _242  and  _243
REMARK  105  A    between atoms: _243  and  _244
REMARK  106  A    between atoms: _244  and  _245
REMARK  107  A    between atoms: _250  and  _251
REMARK  108  A    between atoms: _256  and  _258
REMARK  109  A    between atoms: _258  and  _259
REMARK  110  A    between atoms: _261  and  _263
REMARK  111  A    between atoms: _263  and  _264
REMARK  112  A    between atoms: _263  and  _266
REMARK  113  A    between atoms: _269  and  _271
REMARK  114  A    between atoms: _271  and  _272
REMARK  115  A    between atoms: _271  and  _274
REMARK  116  A    between atoms: _274  and  _275
REMARK  117  A    between atoms: _280  and  _281
REMARK                            x       y       z     vdW  Elec       q    Type
REMARK                         _______ _______ _______ _____ _____    ______ ____
ROOT
ATOM      1  O   HOH     1      -7.597  29.026  37.371  0.00  0.00    +0.000 OA
ENDROOT
TORSDOF 0
REMARK  Name = ../refined-set-2016/2bza/2bza_pocket.pdb
REMARK  117 active torsions:
REMARK  status: ('A' for Active; 'I' for Inactive)
REMARK    1  A    between atoms: _1  and  _5
REMARK    2  A    between atoms: _5  and  _6
REMARK    3  A    between atoms: _5  and  _8
REMARK    4  A    between atoms: _8  and  _9
REMARK    5  A    between atoms: _12  and  _14
REMARK    6  A    between atoms: _14  and  _15
REMARK    7  A    between atoms: _14  and  _17
REMARK    8  A    between atoms: _20  and  _22
REMARK    9  A    between atoms: _22  and  _23
REMARK   10  A    between atoms: _22  and  _25
REMARK   11  A    between atoms: _25  and  _26
REMARK   12  A    between atoms: _31  and  _33
REMARK   13  A    between atoms: _33  and  _34
REMARK   14  A    between atoms: _33  and  _36
REMARK   15  A    between atoms: _36  and  _37
REMARK   16  A    between atoms: _40  and  _42
REMARK   17  A    between atoms: _42  and  _43
REMARK   18  A    between atoms: _42  and  _45
REMARK   19  A    between atoms: _45  and  _46
REMARK   20  A    between atoms: _51  and  _53
REMARK   21  A    between atoms: _53  and  _54
REMARK   22  A    between atoms: _53  and  _56
REMARK   23  A    between atoms: _56  and  _57
REMARK   24  A    between atoms: _62  and  _63
REMARK   25  A    between atoms: _65  and  _67
REMARK   26  A    between atoms: _67  and  _68
REMARK   27  A    between atoms: _71  and  _73
REMARK   28  A    between atoms: _73  and  _74
REMARK   29  A    between atoms: _73  and  _76
REMARK   30  A    between atoms: _76  and  _77
REMARK   31  A    between atoms: _77  and  _78
REMARK   32  A    between atoms: _78  and  _79
REMARK   33  A    between atoms: _79  and  _80
REMARK   34  A    between atoms: _84  and  _86
REMARK   35  A    between atoms: _86  and  _87
REMARK   36  A    between atoms: _86  and  _89
REMARK   37  A    between atoms: _89  and  _90
REMARK   38  A    between atoms: _93  and  _95
REMARK   39  A    between atoms: _95  and  _96
REMARK   40  A    between atoms: _95  and  _98
REMARK   41  A    between atoms: _98  and  _99
REMARK   42  A    between atoms: _101  and  _103
REMARK   43  A    between atoms: _103  and  _104
REMARK   44  A    between atoms: _103  and  _106
REMARK   45  A    between atoms: _106  and  _107
REMARK   46  A    between atoms: _107  and  _217
REMARK   47  A    between atoms: _108  and  _110
REMARK   48  A    between atoms: _110  and  _111
REMARK   49  A    between atoms: _110  and  _113
REMARK   50  A    between atoms: _113  and  _114
REMARK   51  A    between atoms: _114  and  _115
REMARK   52  A    between atoms: _120  and  _122
REMARK   53  A    between atoms: _122  and  _123
REMARK   54  A    between atoms: _125  and  _127
REMARK   55  A    between atoms: _127  and  _128
REMARK   56  A    between atoms: _127  and  _130
REMARK   57  A    between atoms: _130  and  _131
REMARK   58  A    between atoms: _134  and  _136
REMARK   59  A    between atoms: _136  and  _137
REMARK   60  A    between atoms: _136  and  _139
REMARK   61  A    between atoms: _139  and  _140
REMARK   62  A    between atoms: _142  and  _144
REMARK   63  A    between atoms: _144  and  _145
REMARK   64  A    between atoms: _147  and  _149
REMARK   65  A    between atoms: _149  and  _150
REMARK   66  A    between atoms: _152  and  _154
REMARK   67  A    between atoms: _154  and  _155
REMARK   68  A    between atoms: _154  and  _157
REMARK   69  A    between atoms: _157  and  _158
REMARK   70  A    between atoms: _161  and  _163
REMARK   71  A    between atoms: _163  and  _164
REMARK   72  A    between atoms: _163  and  _166
REMARK   73  A    between atoms: _169  and  _171
REMARK   74  A    between atoms: _171  and  _172
REMARK   75  A    between atoms: _171  and  _174
REMARK   76  A    between atoms: _174  and  _175
REMARK   77  A    between atoms: _177  and  _179
REMARK   78  A    between atoms: _179  and  _180
REMARK   79  A    between atoms: _179  and  _182
REMARK   80  A    between atoms: _182  and  _183
REMARK   81  A    between atoms: _193  and  _195
REMARK   82  A    between atoms: _195  and  _196
REMARK   83  A    between atoms: _198  and  _200
REMARK   84  A    between atoms: _200  and  _201
REMARK   85  A    between atoms: _200  and  _203
REMARK   86  A    between atoms: _203  and  _204
REMARK   87  A    between atoms: _206  and  _208
REMARK   88  A    between atoms: _208  and  _209
REMARK   89  A    between atoms: _211  and  _213
REMARK   90  A    between atoms: _213  and  _214
REMARK   91  A    between atoms: _213  and  _216
REMARK   92  A    between atoms: _216  and  _217
REMARK   93  A    between atoms: _218  and  _220
REMARK   94  A    between atoms: _220  and  _221
REMARK   95  A    between atoms: _224  and  _226
REMARK   96  A    between atoms: _226  and  _227
REMARK   97  A    between atoms: _226  and  _229
REMARK   98  A    between atoms: _229  and  _230
REMARK   99  A    between atoms: _230  and  _231
REMARK  100  A    between atoms: _236  and  _238
REMARK  101  A    between atoms: _238  and  _239
REMARK  102  A    between atoms: _238  and  _241
REMARK  103  A    between atoms: _241  and  _242
REMARK  104  A    between atoms: _242  and  _243
REMARK  105  A    between atoms: _243  and  _244
REMARK  106  A    between atoms: _244  and  _245
REMARK  107  A    between atoms: _250  and  _251
REMARK  108  A    between atoms: _256  and  _258
REMARK  109  A    between atoms: _258  and  _259
REMARK  110  A    between atoms: _261  and  _263
REMARK  111  A    between atoms: _263  and  _264
REMARK  112  A    between atoms: _263  and  _266
REMARK  113  A    between atoms: _269  and  _271
REMARK  114  A    between atoms: _271  and  _272
REMARK  115  A    between atoms: _271  and  _274
REMARK  116  A    between atoms: _274  and  _275
REMARK  117  A    between atoms: _280  and  _281
REMARK                            x       y       z     vdW  Elec       q    Type
REMARK                         _______ _______ _______ _____ _____    ______ ____
ROOT
ATOM      1  O   HOH     1      -4.550  28.818  45.147  0.00  0.00    +0.000 OA
ENDROOT
TORSDOF 0
REMARK  Name = ../refined-set-2016/2bza/2bza_pocket.pdb
REMARK  117 active torsions:
REMARK  status: ('A' for Active; 'I' for Inactive)
REMARK    1  A    between atoms: _1  and  _5
REMARK    2  A    between atoms: _5  and  _6
REMARK    3  A    between atoms: _5  and  _8
REMARK    4  A    between atoms: _8  and  _9
REMARK    5  A    between atoms: _12  and  _14
REMARK    6  A    between atoms: _14  and  _15
REMARK    7  A    between atoms: _14  and  _17
REMARK    8  A    between atoms: _20  and  _22
REMARK    9  A    between atoms: _22  and  _23
REMARK   10  A    between atoms: _22  and  _25
REMARK   11  A    between atoms: _25  and  _26
REMARK   12  A    between atoms: _31  and  _33
REMARK   13  A    between atoms: _33  and  _34
REMARK   14  A    between atoms: _33  and  _36
REMARK   15  A    between atoms: _36  and  _37
REMARK   16  A    between atoms: _40  and  _42
REMARK   17  A    between atoms: _42  and  _43
REMARK   18  A    between atoms: _42  and  _45
REMARK   19  A    between atoms: _45  and  _46
REMARK   20  A    between atoms: _51  and  _53
REMARK   21  A    between atoms: _53  and  _54
REMARK   22  A    between atoms: _53  and  _56
REMARK   23  A    between atoms: _56  and  _57
REMARK   24  A    between atoms: _62  and  _63
REMARK   25  A    between atoms: _65  and  _67
REMARK   26  A    between atoms: _67  and  _68
REMARK   27  A    between atoms: _71  and  _73
REMARK   28  A    between atoms: _73  and  _74
REMARK   29  A    between atoms: _73  and  _76
REMARK   30  A    between atoms: _76  and  _77
REMARK   31  A    between atoms: _77  and  _78
REMARK   32  A    between atoms: _78  and  _79
REMARK   33  A    between atoms: _79  and  _80
REMARK   34  A    between atoms: _84  and  _86
REMARK   35  A    between atoms: _86  and  _87
REMARK   36  A    between atoms: _86  and  _89
REMARK   37  A    between atoms: _89  and  _90
REMARK   38  A    between atoms: _93  and  _95
REMARK   39  A    between atoms: _95  and  _96
REMARK   40  A    between atoms: _95  and  _98
REMARK   41  A    between atoms: _98  and  _99
REMARK   42  A    between atoms: _101  and  _103
REMARK   43  A    between atoms: _103  and  _104
REMARK   44  A    between atoms: _103  and  _106
REMARK   45  A    between atoms: _106  and  _107
REMARK   46  A    between atoms: _107  and  _217
REMARK   47  A    between atoms: _108  and  _110
REMARK   48  A    between atoms: _110  and  _111
REMARK   49  A    between atoms: _110  and  _113
REMARK   50  A    between atoms: _113  and  _114
REMARK   51  A    between atoms: _114  and  _115
REMARK   52  A    between atoms: _120  and  _122
REMARK   53  A    between atoms: _122  and  _123
REMARK   54  A    between atoms: _125  and  _127
REMARK   55  A    between atoms: _127  and  _128
REMARK   56  A    between atoms: _127  and  _130
REMARK   57  A    between atoms: _130  and  _131
REMARK   58  A    between atoms: _134  and  _136
REMARK   59  A    between atoms: _136  and  _137
REMARK   60  A    between atoms: _136  and  _139
REMARK   61  A    between atoms: _139  and  _140
REMARK   62  A    between atoms: _142  and  _144
REMARK   63  A    between atoms: _144  and  _145
REMARK   64  A    between atoms: _147  and  _149
REMARK   65  A    between atoms: _149  and  _150
REMARK   66  A    between atoms: _152  and  _154
REMARK   67  A    between atoms: _154  and  _155
REMARK   68  A    between atoms: _154  and  _157
REMARK   69  A    between atoms: _157  and  _158
REMARK   70  A    between atoms: _161  and  _163
REMARK   71  A    between atoms: _163  and  _164
REMARK   72  A    between atoms: _163  and  _166
REMARK   73  A    between atoms: _169  and  _171
REMARK   74  A    between atoms: _171  and  _172
REMARK   75  A    between atoms: _171  and  _174
REMARK   76  A    between atoms: _174  and  _175
REMARK   77  A    between atoms: _177  and  _179
REMARK   78  A    between atoms: _179  and  _180
REMARK   79  A    between atoms: _179  and  _182
REMARK   80  A    between atoms: _182  and  _183
REMARK   81  A    between atoms: _193  and  _195
REMARK   82  A    between atoms: _195  and  _196
REMARK   83  A    between atoms: _198  and  _200
REMARK   84  A    between atoms: _200  and  _201
REMARK   85  A    between atoms: _200  and  _203
REMARK   86  A    between atoms: _203  and  _204
REMARK   87  A    between atoms: _206  and  _208
REMARK   88  A    between atoms: _208  and  _209
REMARK   89  A    between atoms: _211  and  _213
REMARK   90  A    between atoms: _213  and  _214
REMARK   91  A    between atoms: _213  and  _216
REMARK   92  A    between atoms: _216  and  _217
REMARK   93  A    between atoms: _218  and  _220
REMARK   94  A    between atoms: _220  and  _221
REMARK   95  A    between atoms: _224  and  _226
REMARK   96  A    between atoms: _226  and  _227
REMARK   97  A    between atoms: _226  and  _229
REMARK   98  A    between atoms: _229  and  _230
REMARK   99  A    between atoms: _230  and  _231
REMARK  100  A    between atoms: _236  and  _238
REMARK  101  A    between atoms: _238  and  _239
REMARK  102  A    between atoms: _238  and  _241
REMARK  103  A    between atoms: _241  and  _242
REMARK  104  A    between atoms: _242  and  _243
REMARK  105  A    between atoms: _243  and  _244
REMARK  106  A    between atoms: _244  and  _245
REMARK  107  A    between atoms: _250  and  _251
REMARK  108  A    between atoms: _256  and  _258
REMARK  109  A    between atoms: _258  and  _259
REMARK  110  A    between atoms: _261  and  _263
REMARK  111  A    between atoms: _263  and  _264
REMARK  112  A    between atoms: _263  and  _266
REMARK  113  A    between atoms: _269  and  _271
REMARK  114  A    between atoms: _271  and  _272
REMARK  115  A    between atoms: _271  and  _274
REMARK  116  A    between atoms: _274  and  _275
REMARK  117  A    between atoms: _280  and  _281
REMARK                            x       y       z     vdW  Elec       q    Type
REMARK                         _______ _______ _______ _____ _____    ______ ____
ROOT
ATOM      1  O   HOH     1     -15.758  24.841  47.276  0.00  0.00    +0.000 OA
ENDROOT
TORSDOF 0
REMARK  Name = ../refined-set-2016/2bza/2bza_pocket.pdb
REMARK  117 active torsions:
REMARK  status: ('A' for Active; 'I' for Inactive)
REMARK    1  A    between atoms: _1  and  _5
REMARK    2  A    between atoms: _5  and  _6
REMARK    3  A    between atoms: _5  and  _8
REMARK    4  A    between atoms: _8  and  _9
REMARK    5  A    between atoms: _12  and  _14
REMARK    6  A    between atoms: _14  and  _15
REMARK    7  A    between atoms: _14  and  _17
REMARK    8  A    between atoms: _20  and  _22
REMARK    9  A    between atoms: _22  and  _23
REMARK   10  A    between atoms: _22  and  _25
REMARK   11  A    between atoms: _25  and  _26
REMARK   12  A    between atoms: _31  and  _33
REMARK   13  A    between atoms: _33  and  _34
REMARK   14  A    between atoms: _33  and  _36
REMARK   15  A    between atoms: _36  and  _37
REMARK   16  A    between atoms: _40  and  _42
REMARK   17  A    between atoms: _42  and  _43
REMARK   18  A    between atoms: _42  and  _45
REMARK   19  A    between atoms: _45  and  _46
REMARK   20  A    between atoms: _51  and  _53
REMARK   21  A    between atoms: _53  and  _54
REMARK   22  A    between atoms: _53  and  _56
REMARK   23  A    between atoms: _56  and  _57
REMARK   24  A    between atoms: _62  and  _63
REMARK   25  A    between atoms: _65  and  _67
REMARK   26  A    between atoms: _67  and  _68
REMARK   27  A    between atoms: _71  and  _73
REMARK   28  A    between atoms: _73  and  _74
REMARK   29  A    between atoms: _73  and  _76
REMARK   30  A    between atoms: _76  and  _77
REMARK   31  A    between atoms: _77  and  _78
REMARK   32  A    between atoms: _78  and  _79
REMARK   33  A    between atoms: _79  and  _80
REMARK   34  A    between atoms: _84  and  _86
REMARK   35  A    between atoms: _86  and  _87
REMARK   36  A    between atoms: _86  and  _89
REMARK   37  A    between atoms: _89  and  _90
REMARK   38  A    between atoms: _93  and  _95
REMARK   39  A    between atoms: _95  and  _96
REMARK   40  A    between atoms: _95  and  _98
REMARK   41  A    between atoms: _98  and  _99
REMARK   42  A    between atoms: _101  and  _103
REMARK   43  A    between atoms: _103  and  _104
REMARK   44  A    between atoms: _103  and  _106
REMARK   45  A    between atoms: _106  and  _107
REMARK   46  A    between atoms: _107  and  _217
REMARK   47  A    between atoms: _108  and  _110
REMARK   48  A    between atoms: _110  and  _111
REMARK   49  A    between atoms: _110  and  _113
REMARK   50  A    between atoms: _113  and  _114
REMARK   51  A    between atoms: _114  and  _115
REMARK   52  A    between atoms: _120  and  _122
REMARK   53  A    between atoms: _122  and  _123
REMARK   54  A    between atoms: _125  and  _127
REMARK   55  A    between atoms: _127  and  _128
REMARK   56  A    between atoms: _127  and  _130
REMARK   57  A    between atoms: _130  and  _131
REMARK   58  A    between atoms: _134  and  _136
REMARK   59  A    between atoms: _136  and  _137
REMARK   60  A    between atoms: _136  and  _139
REMARK   61  A    between atoms: _139  and  _140
REMARK   62  A    between atoms: _142  and  _144
REMARK   63  A    between atoms: _144  and  _145
REMARK   64  A    between atoms: _147  and  _149
REMARK   65  A    between atoms: _149  and  _150
REMARK   66  A    between atoms: _152  and  _154
REMARK   67  A    between atoms: _154  and  _155
REMARK   68  A    between atoms: _154  and  _157
REMARK   69  A    between atoms: _157  and  _158
REMARK   70  A    between atoms: _161  and  _163
REMARK   71  A    between atoms: _163  and  _164
REMARK   72  A    between atoms: _163  and  _166
REMARK   73  A    between atoms: _169  and  _171
REMARK   74  A    between atoms: _171  and  _172
REMARK   75  A    between atoms: _171  and  _174
REMARK   76  A    between atoms: _174  and  _175
REMARK   77  A    between atoms: _177  and  _179
REMARK   78  A    between atoms: _179  and  _180
REMARK   79  A    between atoms: _179  and  _182
REMARK   80  A    between atoms: _182  and  _183
REMARK   81  A    between atoms: _193  and  _195
REMARK   82  A    between atoms: _195  and  _196
REMARK   83  A    between atoms: _198  and  _200
REMARK   84  A    between atoms: _200  and  _201
REMARK   85  A    between atoms: _200  and  _203
REMARK   86  A    between atoms: _203  and  _204
REMARK   87  A    between atoms: _206  and  _208
REMARK   88  A    between atoms: _208  and  _209
REMARK   89  A    between atoms: _211  and  _213
REMARK   90  A    between atoms: _213  and  _214
REMARK   91  A    between atoms: _213  and  _216
REMARK   92  A    between atoms: _216  and  _217
REMARK   93  A    between atoms: _218  and  _220
REMARK   94  A    between atoms: _220  and  _221
REMARK   95  A    between atoms: _224  and  _226
REMARK   96  A    between atoms: _226  and  _227
REMARK   97  A    between atoms: _226  and  _229
REMARK   98  A    between atoms: _229  and  _230
REMARK   99  A    between atoms: _230  and  _231
REMARK  100  A    between atoms: _236  and  _238
REMARK  101  A    between atoms: _238  and  _239
REMARK  102  A    between atoms: _238  and  _241
REMARK  103  A    between atoms: _241  and  _242
REMARK  104  A    between atoms: _242  and  _243
REMARK  105  A    between atoms: _243  and  _244
REMARK  106  A    between atoms: _244  and  _245
REMARK  107  A    between atoms: _250  and  _251
REMARK  108  A    between atoms: _256  and  _258
REMARK  109  A    between atoms: _258  and  _259
REMARK  110  A    between atoms: _261  and  _263
REMARK  111  A    between atoms: _263  and  _264
REMARK  112  A    between atoms: _263  and  _266
REMARK  113  A    between atoms: _269  and  _271
REMARK  114  A    between atoms: _271  and  _272
REMARK  115  A    between atoms: _271  and  _274
REMARK  116  A    between atoms: _274  and  _275
REMARK  117  A    between atoms: _280  and  _281
REMARK                            x       y       z     vdW  Elec       q    Type
REMARK                         _______ _______ _______ _____ _____    ______ ____
ROOT
ATOM      1  O   HOH     1      -6.828  27.215  40.579  0.00  0.00    +0.000 OA
ENDROOT
TORSDOF 0
