REMARK  Name = ../refined-set-2016/3ubd/3ubd_pocket.pdb
REMARK  237 active torsions:
REMARK  status: ('A' for Active; 'I' for Inactive)
REMARK    1  A    between atoms: _1  and  _5
REMARK    2  A    between atoms: _5  and  _6
REMARK    3  A    between atoms: _5  and  _8
REMARK    4  A    between atoms: _8  and  _9
REMARK    5  A    between atoms: _9  and  _10
REMARK    6  A    between atoms: _13  and  _15
REMARK    7  A    between atoms: _15  and  _16
REMARK    8  A    between atoms: _15  and  _18
REMARK    9  A    between atoms: _18  and  _19
REMARK   10  A    between atoms: _22  and  _24
REMARK   11  A    between atoms: _24  and  _25
REMARK   12  A    between atoms: _28  and  _30
REMARK   13  A    between atoms: _30  and  _31
REMARK   14  A    between atoms: _30  and  _33
REMARK   15  A    between atoms: _33  and  _34
REMARK   16  A    between atoms: _37  and  _39
REMARK   17  A    between atoms: _39  and  _40
REMARK   18  A    between atoms: _39  and  _42
REMARK   19  A    between atoms: _42  and  _43
REMARK   20  A    between atoms: _43  and  _44
REMARK   21  A    between atoms: _49  and  _51
REMARK   22  A    between atoms: _51  and  _52
REMARK   23  A    between atoms: _54  and  _56
REMARK   24  A    between atoms: _56  and  _57
REMARK   25  A    between atoms: _56  and  _59
REMARK   26  A    between atoms: _59  and  _60
REMARK   27  A    between atoms: _62  and  _64
REMARK   28  A    between atoms: _64  and  _65
REMARK   29  A    between atoms: _64  and  _67
REMARK   30  A    between atoms: _67  and  _68
REMARK   31  A    between atoms: _74  and  _76
REMARK   32  A    between atoms: _76  and  _77
REMARK   33  A    between atoms: _79  and  _81
REMARK   34  A    between atoms: _81  and  _82
REMARK   35  A    between atoms: _81  and  _84
REMARK   36  A    between atoms: _84  and  _85
REMARK   37  A    between atoms: _85  and  _86
REMARK   38  A    between atoms: _86  and  _87
REMARK   39  A    between atoms: _87  and  _88
REMARK   40  A    between atoms: _92  and  _94
REMARK   41  A    between atoms: _94  and  _95
REMARK   42  A    between atoms: _94  and  _97
REMARK   43  A    between atoms: _100  and  _102
REMARK   44  A    between atoms: _102  and  _103
REMARK   45  A    between atoms: _102  and  _105
REMARK   46  A    between atoms: _105  and  _106
REMARK   47  A    between atoms: _112  and  _114
REMARK   48  A    between atoms: _114  and  _115
REMARK   49  A    between atoms: _114  and  _117
REMARK   50  A    between atoms: _117  and  _118
REMARK   51  A    between atoms: _123  and  _124
REMARK   52  A    between atoms: _126  and  _128
REMARK   53  A    between atoms: _128  and  _129
REMARK   54  A    between atoms: _132  and  _134
REMARK   55  A    between atoms: _134  and  _135
REMARK   56  A    between atoms: _134  and  _137
REMARK   57  A    between atoms: _137  and  _138
REMARK   58  A    between atoms: _138  and  _139
REMARK   59  A    between atoms: _141  and  _143
REMARK   60  A    between atoms: _143  and  _144
REMARK   61  A    between atoms: _143  and  _146
REMARK   62  A    between atoms: _146  and  _147
REMARK   63  A    between atoms: _147  and  _148
REMARK   64  A    between atoms: _148  and  _149
REMARK   65  A    between atoms: _149  and  _150
REMARK   66  A    between atoms: _154  and  _156
REMARK   67  A    between atoms: _156  and  _157
REMARK   68  A    between atoms: _156  and  _159
REMARK   69  A    between atoms: _162  and  _164
REMARK   70  A    between atoms: _164  and  _165
REMARK   71  A    between atoms: _164  and  _167
REMARK   72  A    between atoms: _167  and  _168
REMARK   73  A    between atoms: _171  and  _173
REMARK   74  A    between atoms: _173  and  _174
REMARK   75  A    between atoms: _173  and  _176
REMARK   76  A    between atoms: _176  and  _177
REMARK   77  A    between atoms: _177  and  _178
REMARK   78  A    between atoms: _178  and  _179
REMARK   79  A    between atoms: _179  and  _180
REMARK   80  A    between atoms: _184  and  _186
REMARK   81  A    between atoms: _186  and  _187
REMARK   82  A    between atoms: _186  and  _189
REMARK   83  A    between atoms: _189  and  _190
REMARK   84  A    between atoms: _190  and  _191
REMARK   85  A    between atoms: _191  and  _192
REMARK   86  A    between atoms: _192  and  _193
REMARK   87  A    between atoms: _197  and  _199
REMARK   88  A    between atoms: _199  and  _200
REMARK   89  A    between atoms: _203  and  _205
REMARK   90  A    between atoms: _205  and  _206
REMARK   91  A    between atoms: _205  and  _208
REMARK   92  A    between atoms: _208  and  _209
REMARK   93  A    between atoms: _212  and  _214
REMARK   94  A    between atoms: _214  and  _215
REMARK   95  A    between atoms: _214  and  _217
REMARK   96  A    between atoms: _217  and  _218
REMARK   97  A    between atoms: _221  and  _223
REMARK   98  A    between atoms: _223  and  _224
REMARK   99  A    between atoms: _223  and  _226
REMARK  100  A    between atoms: _229  and  _231
REMARK  101  A    between atoms: _231  and  _232
REMARK  102  A    between atoms: _231  and  _234
REMARK  103  A    between atoms: _234  and  _235
REMARK  104  A    between atoms: _235  and  _236
REMARK  105  A    between atoms: _236  and  _237
REMARK  106  A    between atoms: _237  and  _238
REMARK  107  A    between atoms: _242  and  _244
REMARK  108  A    between atoms: _244  and  _245
REMARK  109  A    between atoms: _244  and  _247
REMARK  110  A    between atoms: _247  and  _248
REMARK  111  A    between atoms: _251  and  _253
REMARK  112  A    between atoms: _253  and  _254
REMARK  113  A    between atoms: _253  and  _256
REMARK  114  A    between atoms: _256  and  _257
REMARK  115  A    between atoms: _262  and  _264
REMARK  116  A    between atoms: _264  and  _265
REMARK  117  A    between atoms: _264  and  _267
REMARK  118  A    between atoms: _267  and  _268
REMARK  119  A    between atoms: _271  and  _273
REMARK  120  A    between atoms: _273  and  _274
REMARK  121  A    between atoms: _273  and  _276
REMARK  122  A    between atoms: _276  and  _277
REMARK  123  A    between atoms: _280  and  _282
REMARK  124  A    between atoms: _282  and  _283
REMARK  125  A    between atoms: _282  and  _285
REMARK  126  A    between atoms: _285  and  _286
REMARK  127  A    between atoms: _289  and  _291
REMARK  128  A    between atoms: _291  and  _292
REMARK  129  A    between atoms: _291  and  _294
REMARK  130  A    between atoms: _294  and  _295
REMARK  131  A    between atoms: _298  and  _300
REMARK  132  A    between atoms: _300  and  _301
REMARK  133  A    between atoms: _300  and  _303
REMARK  134  A    between atoms: _303  and  _304
REMARK  135  A    between atoms: _307  and  _309
REMARK  136  A    between atoms: _309  and  _310
REMARK  137  A    between atoms: _309  and  _312
REMARK  138  A    between atoms: _312  and  _313
REMARK  139  A    between atoms: _319  and  _321
REMARK  140  A    between atoms: _321  and  _322
REMARK  141  A    between atoms: _321  and  _324
REMARK  142  A    between atoms: _324  and  _325
REMARK  143  A    between atoms: _328  and  _330
REMARK  144  A    between atoms: _330  and  _331
REMARK  145  A    between atoms: _330  and  _333
REMARK  146  A    between atoms: _333  and  _334
REMARK  147  A    between atoms: _334  and  _335
REMARK  148  A    between atoms: _335  and  _336
REMARK  149  A    between atoms: _345  and  _347
REMARK  150  A    between atoms: _347  and  _348
REMARK  151  A    between atoms: _350  and  _352
REMARK  152  A    between atoms: _352  and  _353
REMARK  153  A    between atoms: _355  and  _357
REMARK  154  A    between atoms: _357  and  _358
REMARK  155  A    between atoms: _357  and  _360
REMARK  156  A    between atoms: _360  and  _361
REMARK  157  A    between atoms: _364  and  _366
REMARK  158  A    between atoms: _366  and  _367
REMARK  159  A    between atoms: _366  and  _369
REMARK  160  A    between atoms: _369  and  _370
REMARK  161  A    between atoms: _373  and  _375
REMARK  162  A    between atoms: _375  and  _376
REMARK  163  A    between atoms: _375  and  _378
REMARK  164  A    between atoms: _378  and  _379
REMARK  165  A    between atoms: _385  and  _387
REMARK  166  A    between atoms: _387  and  _388
REMARK  167  A    between atoms: _387  and  _390
REMARK  168  A    between atoms: _390  and  _391
REMARK  169  A    between atoms: _394  and  _396
REMARK  170  A    between atoms: _396  and  _397
REMARK  171  A    between atoms: _396  and  _399
REMARK  172  A    between atoms: _399  and  _400
REMARK  173  A    between atoms: _400  and  _401
REMARK  174  A    between atoms: _401  and  _402
REMARK  175  A    between atoms: _402  and  _403
REMARK  176  A    between atoms: _408  and  _409
REMARK  177  A    between atoms: _414  and  _416
REMARK  178  A    between atoms: _416  and  _417
REMARK  179  A    between atoms: _416  and  _419
REMARK  180  A    between atoms: _419  and  _420
REMARK  181  A    between atoms: _420  and  _421
REMARK  182  A    between atoms: _424  and  _426
REMARK  183  A    between atoms: _426  and  _427
REMARK  184  A    between atoms: _426  and  _429
REMARK  185  A    between atoms: _429  and  _430
REMARK  186  A    between atoms: _435  and  _437
REMARK  187  A    between atoms: _437  and  _438
REMARK  188  A    between atoms: _437  and  _440
REMARK  189  A    between atoms: _440  and  _441
REMARK  190  A    between atoms: _444  and  _446
REMARK  191  A    between atoms: _446  and  _447
REMARK  192  A    between atoms: _446  and  _449
REMARK  193  A    between atoms: _449  and  _450
REMARK  194  A    between atoms: _453  and  _455
REMARK  195  A    between atoms: _455  and  _456
REMARK  196  A    between atoms: _455  and  _458
REMARK  197  A    between atoms: _458  and  _459
REMARK  198  A    between atoms: _462  and  _464
REMARK  199  A    between atoms: _464  and  _465
REMARK  200  A    between atoms: _464  and  _467
REMARK  201  A    between atoms: _467  and  _468
REMARK  202  A    between atoms: _468  and  _469
REMARK  203  A    between atoms: _469  and  _470
REMARK  204  A    between atoms: _470  and  _471
REMARK  205  A    between atoms: _475  and  _477
REMARK  206  A    between atoms: _477  and  _478
REMARK  207  A    between atoms: _477  and  _480
REMARK  208  A    between atoms: _480  and  _481
REMARK  209  A    between atoms: _484  and  _486
REMARK  210  A    between atoms: _486  and  _487
REMARK  211  A    between atoms: _486  and  _489
REMARK  212  A    between atoms: _489  and  _490
REMARK  213  A    between atoms: _493  and  _495
REMARK  214  A    between atoms: _495  and  _496
REMARK  215  A    between atoms: _495  and  _498
REMARK  216  A    between atoms: _498  and  _499
REMARK  217  A    between atoms: _502  and  _504
REMARK  218  A    between atoms: _504  and  _505
REMARK  219  A    between atoms: _504  and  _507
REMARK  220  A    between atoms: _507  and  _508
REMARK  221  A    between atoms: _514  and  _516
REMARK  222  A    between atoms: _516  and  _517
REMARK  223  A    between atoms: _519  and  _521
REMARK  224  A    between atoms: _521  and  _522
REMARK  225  A    between atoms: _521  and  _524
REMARK  226  A    between atoms: _524  and  _525
REMARK  227  A    between atoms: _528  and  _530
REMARK  228  A    between atoms: _530  and  _531
REMARK  229  A    between atoms: _530  and  _533
REMARK  230  A    between atoms: _533  and  _534
REMARK  231  A    between atoms: _536  and  _538
REMARK  232  A    between atoms: _538  and  _539
REMARK  233  A    between atoms: _538  and  _541
REMARK  234  A    between atoms: _541  and  _542
REMARK  235  A    between atoms: _542  and  _543
REMARK  236  A    between atoms: _543  and  _544
REMARK  237  A    between atoms: _544  and  _545
REMARK                            x       y       z     vdW  Elec       q    Type
REMARK                         _______ _______ _______ _____ _____    ______ ____
ROOT
ATOM      1  CA  ILE A   2      27.015  13.085   6.813  0.00  0.00    +0.148 C 
ENDROOT
BRANCH   1   4
ATOM      2  C   GLU A   1      25.444  14.067   5.266  0.00  0.00    +0.202 C 
ATOM      3  O   GLU A   1      24.589  14.157   6.147  0.00  0.00    -0.277 OA
ATOM      4  N   ILE A   2      26.660  13.587   5.494  0.00  0.00    -0.300 N 
ATOM      5  H   ILE A   2      27.362  13.570   4.727  0.00  0.00    +0.150 HD
BRANCH   2   6
ATOM      6  CA  GLU A   1      25.144  14.514   3.843  0.00  0.00    +0.013 C 
BRANCH   6   7
ATOM      7  N   GLU A   1      23.767  14.201   3.483  0.00  0.00    +0.387 N 
ATOM      8  H1  GLU A   1      23.120  14.691   4.133  0.00  0.00    -0.089 HD
ATOM      9  H2  GLU A   1      23.617  13.174   3.552  0.00  0.00    -0.089 HD
ATOM     10  H3  GLU A   1      23.585  14.515   2.508  0.00  0.00    -0.089 HD
ENDBRANCH   6   7
BRANCH   6  11
ATOM     11  CB  GLU A   1      25.411  16.014   3.697  0.00  0.00    -0.001 C 
BRANCH  11  12
ATOM     12  CG  GLU A   1      26.827  16.429   4.075  0.00  0.00    +0.112 C 
BRANCH  12  13
ATOM     13  CD  GLU A   1      27.123  17.882   3.743  0.00  0.00    +0.365 C 
ATOM     14  OE2 GLU A   1      28.276  18.317   3.954  0.00  0.00    -0.246 OA
ATOM     15  OE1 GLU A   1      26.205  18.585   3.268  0.00  0.00    -0.246 OA
ENDBRANCH  12  13
ENDBRANCH  11  12
ENDBRANCH   6  11
ENDBRANCH   2   6
ENDBRANCH   1   4
BRANCH   1  16
ATOM     16  C   ILE A   2      27.616  14.174   7.694  0.00  0.00    +0.241 C 
ATOM     17  N   ALA A   3      27.316  14.090   8.984  0.00  0.00    -0.297 N 
ATOM     18  H   ALA A   3      26.609  13.393   9.294  0.00  0.00    +0.150 HD
ATOM     19  O   ILE A   2      28.321  15.066   7.220  0.00  0.00    -0.273 OA
BRANCH  17  20
ATOM     20  CA  ALA A   3      27.946  14.942   9.974  0.00  0.00    +0.149 C 
ATOM     21  CB  ALA A   3      26.910  15.785  10.689  0.00  0.00    +0.031 C 
BRANCH  20  22
ATOM     22  C   ALA A   3      28.653  14.034  10.958  0.00  0.00    +0.241 C 
ATOM     23  O   ALA A   3      28.066  13.077  11.454  0.00  0.00    -0.273 OA
ATOM     24  N   ILE A   4      29.924  14.327  11.213  0.00  0.00    -0.298 N 
ATOM     25  H   ILE A   4      30.383  15.093  10.680  0.00  0.00    +0.150 HD
BRANCH  24  26
ATOM     26  CA  ILE A   4      30.691  13.605  12.218  0.00  0.00    +0.137 C 
BRANCH  26  27
ATOM     27  C   ILE A   4      30.800  14.470  13.458  0.00  0.00    +0.227 C 
ATOM     28  O   ILE A   4      31.192  15.633  13.363  0.00  0.00    -0.286 OA
ENDBRANCH  26  27
BRANCH  26  29
ATOM     29  CB  ILE A   4      32.103  13.290  11.710  0.00  0.00    +0.026 C 
ATOM     30  CG2 ILE A   4      32.952  12.654  12.821  0.00  0.00    +0.002 C 
BRANCH  29  31
ATOM     31  CG1 ILE A   4      32.037  12.382  10.483  0.00  0.00    +0.002 C 
ATOM     32  CD1 ILE A   4      31.303  11.087  10.721  0.00  0.00    +0.000 C 
ENDBRANCH  29  31
ENDBRANCH  26  29
ENDBRANCH  24  26
ENDBRANCH  20  22
ENDBRANCH  17  20
ENDBRANCH   1  16
BRANCH   1  33
ATOM     33  CB  ILE A   2      28.000  11.901   6.738  0.00  0.00    +0.027 C 
ATOM     34  CG2 ILE A   2      29.368  12.374   6.291  0.00  0.00    +0.002 C 
BRANCH  33  35
ATOM     35  CG1 ILE A   2      28.098  11.205   8.098  0.00  0.00    +0.002 C 
ATOM     36  CD1 ILE A   2      26.793  10.599   8.573  0.00  0.00    +0.000 C 
ENDBRANCH  33  35
ENDBRANCH   1  33
TORSDOF 15
REMARK  Name = ../refined-set-2016/3ubd/3ubd_pocket.pdb
REMARK  237 active torsions:
REMARK  status: ('A' for Active; 'I' for Inactive)
REMARK    1  A    between atoms: _1  and  _5
REMARK    2  A    between atoms: _5  and  _6
REMARK    3  A    between atoms: _5  and  _8
REMARK    4  A    between atoms: _8  and  _9
REMARK    5  A    between atoms: _9  and  _10
REMARK    6  A    between atoms: _13  and  _15
REMARK    7  A    between atoms: _15  and  _16
REMARK    8  A    between atoms: _15  and  _18
REMARK    9  A    between atoms: _18  and  _19
REMARK   10  A    between atoms: _22  and  _24
REMARK   11  A    between atoms: _24  and  _25
REMARK   12  A    between atoms: _28  and  _30
REMARK   13  A    between atoms: _30  and  _31
REMARK   14  A    between atoms: _30  and  _33
REMARK   15  A    between atoms: _33  and  _34
REMARK   16  A    between atoms: _37  and  _39
REMARK   17  A    between atoms: _39  and  _40
REMARK   18  A    between atoms: _39  and  _42
REMARK   19  A    between atoms: _42  and  _43
REMARK   20  A    between atoms: _43  and  _44
REMARK   21  A    between atoms: _49  and  _51
REMARK   22  A    between atoms: _51  and  _52
REMARK   23  A    between atoms: _54  and  _56
REMARK   24  A    between atoms: _56  and  _57
REMARK   25  A    between atoms: _56  and  _59
REMARK   26  A    between atoms: _59  and  _60
REMARK   27  A    between atoms: _62  and  _64
REMARK   28  A    between atoms: _64  and  _65
REMARK   29  A    between atoms: _64  and  _67
REMARK   30  A    between atoms: _67  and  _68
REMARK   31  A    between atoms: _74  and  _76
REMARK   32  A    between atoms: _76  and  _77
REMARK   33  A    between atoms: _79  and  _81
REMARK   34  A    between atoms: _81  and  _82
REMARK   35  A    between atoms: _81  and  _84
REMARK   36  A    between atoms: _84  and  _85
REMARK   37  A    between atoms: _85  and  _86
REMARK   38  A    between atoms: _86  and  _87
REMARK   39  A    between atoms: _87  and  _88
REMARK   40  A    between atoms: _92  and  _94
REMARK   41  A    between atoms: _94  and  _95
REMARK   42  A    between atoms: _94  and  _97
REMARK   43  A    between atoms: _100  and  _102
REMARK   44  A    between atoms: _102  and  _103
REMARK   45  A    between atoms: _102  and  _105
REMARK   46  A    between atoms: _105  and  _106
REMARK   47  A    between atoms: _112  and  _114
REMARK   48  A    between atoms: _114  and  _115
REMARK   49  A    between atoms: _114  and  _117
REMARK   50  A    between atoms: _117  and  _118
REMARK   51  A    between atoms: _123  and  _124
REMARK   52  A    between atoms: _126  and  _128
REMARK   53  A    between atoms: _128  and  _129
REMARK   54  A    between atoms: _132  and  _134
REMARK   55  A    between atoms: _134  and  _135
REMARK   56  A    between atoms: _134  and  _137
REMARK   57  A    between atoms: _137  and  _138
REMARK   58  A    between atoms: _138  and  _139
REMARK   59  A    between atoms: _141  and  _143
REMARK   60  A    between atoms: _143  and  _144
REMARK   61  A    between atoms: _143  and  _146
REMARK   62  A    between atoms: _146  and  _147
REMARK   63  A    between atoms: _147  and  _148
REMARK   64  A    between atoms: _148  and  _149
REMARK   65  A    between atoms: _149  and  _150
REMARK   66  A    between atoms: _154  and  _156
REMARK   67  A    between atoms: _156  and  _157
REMARK   68  A    between atoms: _156  and  _159
REMARK   69  A    between atoms: _162  and  _164
REMARK   70  A    between atoms: _164  and  _165
REMARK   71  A    between atoms: _164  and  _167
REMARK   72  A    between atoms: _167  and  _168
REMARK   73  A    between atoms: _171  and  _173
REMARK   74  A    between atoms: _173  and  _174
REMARK   75  A    between atoms: _173  and  _176
REMARK   76  A    between atoms: _176  and  _177
REMARK   77  A    between atoms: _177  and  _178
REMARK   78  A    between atoms: _178  and  _179
REMARK   79  A    between atoms: _179  and  _180
REMARK   80  A    between atoms: _184  and  _186
REMARK   81  A    between atoms: _186  and  _187
REMARK   82  A    between atoms: _186  and  _189
REMARK   83  A    between atoms: _189  and  _190
REMARK   84  A    between atoms: _190  and  _191
REMARK   85  A    between atoms: _191  and  _192
REMARK   86  A    between atoms: _192  and  _193
REMARK   87  A    between atoms: _197  and  _199
REMARK   88  A    between atoms: _199  and  _200
REMARK   89  A    between atoms: _203  and  _205
REMARK   90  A    between atoms: _205  and  _206
REMARK   91  A    between atoms: _205  and  _208
REMARK   92  A    between atoms: _208  and  _209
REMARK   93  A    between atoms: _212  and  _214
REMARK   94  A    between atoms: _214  and  _215
REMARK   95  A    between atoms: _214  and  _217
REMARK   96  A    between atoms: _217  and  _218
REMARK   97  A    between atoms: _221  and  _223
REMARK   98  A    between atoms: _223  and  _224
REMARK   99  A    between atoms: _223  and  _226
REMARK  100  A    between atoms: _229  and  _231
REMARK  101  A    between atoms: _231  and  _232
REMARK  102  A    between atoms: _231  and  _234
REMARK  103  A    between atoms: _234  and  _235
REMARK  104  A    between atoms: _235  and  _236
REMARK  105  A    between atoms: _236  and  _237
REMARK  106  A    between atoms: _237  and  _238
REMARK  107  A    between atoms: _242  and  _244
REMARK  108  A    between atoms: _244  and  _245
REMARK  109  A    between atoms: _244  and  _247
REMARK  110  A    between atoms: _247  and  _248
REMARK  111  A    between atoms: _251  and  _253
REMARK  112  A    between atoms: _253  and  _254
REMARK  113  A    between atoms: _253  and  _256
REMARK  114  A    between atoms: _256  and  _257
REMARK  115  A    between atoms: _262  and  _264
REMARK  116  A    between atoms: _264  and  _265
REMARK  117  A    between atoms: _264  and  _267
REMARK  118  A    between atoms: _267  and  _268
REMARK  119  A    between atoms: _271  and  _273
REMARK  120  A    between atoms: _273  and  _274
REMARK  121  A    between atoms: _273  and  _276
REMARK  122  A    between atoms: _276  and  _277
REMARK  123  A    between atoms: _280  and  _282
REMARK  124  A    between atoms: _282  and  _283
REMARK  125  A    between atoms: _282  and  _285
REMARK  126  A    between atoms: _285  and  _286
REMARK  127  A    between atoms: _289  and  _291
REMARK  128  A    between atoms: _291  and  _292
REMARK  129  A    between atoms: _291  and  _294
REMARK  130  A    between atoms: _294  and  _295
REMARK  131  A    between atoms: _298  and  _300
REMARK  132  A    between atoms: _300  and  _301
REMARK  133  A    between atoms: _300  and  _303
REMARK  134  A    between atoms: _303  and  _304
REMARK  135  A    between atoms: _307  and  _309
REMARK  136  A    between atoms: _309  and  _310
REMARK  137  A    between atoms: _309  and  _312
REMARK  138  A    between atoms: _312  and  _313
REMARK  139  A    between atoms: _319  and  _321
REMARK  140  A    between atoms: _321  and  _322
REMARK  141  A    between atoms: _321  and  _324
REMARK  142  A    between atoms: _324  and  _325
REMARK  143  A    between atoms: _328  and  _330
REMARK  144  A    between atoms: _330  and  _331
REMARK  145  A    between atoms: _330  and  _333
REMARK  146  A    between atoms: _333  and  _334
REMARK  147  A    between atoms: _334  and  _335
REMARK  148  A    between atoms: _335  and  _336
REMARK  149  A    between atoms: _345  and  _347
REMARK  150  A    between atoms: _347  and  _348
REMARK  151  A    between atoms: _350  and  _352
REMARK  152  A    between atoms: _352  and  _353
REMARK  153  A    between atoms: _355  and  _357
REMARK  154  A    between atoms: _357  and  _358
REMARK  155  A    between atoms: _357  and  _360
REMARK  156  A    between atoms: _360  and  _361
REMARK  157  A    between atoms: _364  and  _366
REMARK  158  A    between atoms: _366  and  _367
REMARK  159  A    between atoms: _366  and  _369
REMARK  160  A    between atoms: _369  and  _370
REMARK  161  A    between atoms: _373  and  _375
REMARK  162  A    between atoms: _375  and  _376
REMARK  163  A    between atoms: _375  and  _378
REMARK  164  A    between atoms: _378  and  _379
REMARK  165  A    between atoms: _385  and  _387
REMARK  166  A    between atoms: _387  and  _388
REMARK  167  A    between atoms: _387  and  _390
REMARK  168  A    between atoms: _390  and  _391
REMARK  169  A    between atoms: _394  and  _396
REMARK  170  A    between atoms: _396  and  _397
REMARK  171  A    between atoms: _396  and  _399
REMARK  172  A    between atoms: _399  and  _400
REMARK  173  A    between atoms: _400  and  _401
REMARK  174  A    between atoms: _401  and  _402
REMARK  175  A    between atoms: _402  and  _403
REMARK  176  A    between atoms: _408  and  _409
REMARK  177  A    between atoms: _414  and  _416
REMARK  178  A    between atoms: _416  and  _417
REMARK  179  A    between atoms: _416  and  _419
REMARK  180  A    between atoms: _419  and  _420
REMARK  181  A    between atoms: _420  and  _421
REMARK  182  A    between atoms: _424  and  _426
REMARK  183  A    between atoms: _426  and  _427
REMARK  184  A    between atoms: _426  and  _429
REMARK  185  A    between atoms: _429  and  _430
REMARK  186  A    between atoms: _435  and  _437
REMARK  187  A    between atoms: _437  and  _438
REMARK  188  A    between atoms: _437  and  _440
REMARK  189  A    between atoms: _440  and  _441
REMARK  190  A    between atoms: _444  and  _446
REMARK  191  A    between atoms: _446  and  _447
REMARK  192  A    between atoms: _446  and  _449
REMARK  193  A    between atoms: _449  and  _450
REMARK  194  A    between atoms: _453  and  _455
REMARK  195  A    between atoms: _455  and  _456
REMARK  196  A    between atoms: _455  and  _458
REMARK  197  A    between atoms: _458  and  _459
REMARK  198  A    between atoms: _462  and  _464
REMARK  199  A    between atoms: _464  and  _465
REMARK  200  A    between atoms: _464  and  _467
REMARK  201  A    between atoms: _467  and  _468
REMARK  202  A    between atoms: _468  and  _469
REMARK  203  A    between atoms: _469  and  _470
REMARK  204  A    between atoms: _470  and  _471
REMARK  205  A    between atoms: _475  and  _477
REMARK  206  A    between atoms: _477  and  _478
REMARK  207  A    between atoms: _477  and  _480
REMARK  208  A    between atoms: _480  and  _481
REMARK  209  A    between atoms: _484  and  _486
REMARK  210  A    between atoms: _486  and  _487
REMARK  211  A    between atoms: _486  and  _489
REMARK  212  A    between atoms: _489  and  _490
REMARK  213  A    between atoms: _493  and  _495
REMARK  214  A    between atoms: _495  and  _496
REMARK  215  A    between atoms: _495  and  _498
REMARK  216  A    between atoms: _498  and  _499
REMARK  217  A    between atoms: _502  and  _504
REMARK  218  A    between atoms: _504  and  _505
REMARK  219  A    between atoms: _504  and  _507
REMARK  220  A    between atoms: _507  and  _508
REMARK  221  A    between atoms: _514  and  _516
REMARK  222  A    between atoms: _516  and  _517
REMARK  223  A    between atoms: _519  and  _521
REMARK  224  A    between atoms: _521  and  _522
REMARK  225  A    between atoms: _521  and  _524
REMARK  226  A    between atoms: _524  and  _525
REMARK  227  A    between atoms: _528  and  _530
REMARK  228  A    between atoms: _530  and  _531
REMARK  229  A    between atoms: _530  and  _533
REMARK  230  A    between atoms: _533  and  _534
REMARK  231  A    between atoms: _536  and  _538
REMARK  232  A    between atoms: _538  and  _539
REMARK  233  A    between atoms: _538  and  _541
REMARK  234  A    between atoms: _541  and  _542
REMARK  235  A    between atoms: _542  and  _543
REMARK  236  A    between atoms: _543  and  _544
REMARK  237  A    between atoms: _544  and  _545
REMARK                            x       y       z     vdW  Elec       q    Type
REMARK                         _______ _______ _______ _____ _____    ______ ____
ROOT
ATOM      1  C   PHE A   4      35.277   1.937   4.015  0.00  0.00    +0.241 C 
ATOM      2  O   PHE A   4      35.651   3.102   4.173  0.00  0.00    -0.273 OA
ATOM      3  N   GLY A   5      35.336   1.315   2.842  0.00  0.00    -0.295 N 
ATOM      4  H   GLY A   5      34.966   0.347   2.752  0.00  0.00    +0.150 HD
ENDROOT
BRANCH   3   5
ATOM      5  CA  GLY A   5      35.912   1.975   1.685  0.00  0.00    +0.176 C 
BRANCH   5   6
ATOM      6  C   GLY A   5      37.417   2.155   1.799  0.00  0.00    +0.243 C 
ATOM      7  O   GLY A   5      38.114   1.366   2.445  0.00  0.00    -0.273 OA
ATOM      8  N   LYS A   6      37.918   3.205   1.155  0.00  0.00    -0.297 N 
ATOM      9  H   LYS A   6      37.262   3.858   0.682  0.00  0.00    +0.150 HD
BRANCH   8  10
ATOM     10  CA  LYS A   6      39.346   3.479   1.084  0.00  0.00    +0.149 C 
BRANCH  10  11
ATOM     11  C   LYS A   6      39.873   4.000   2.421  0.00  0.00    +0.241 C 
ATOM     12  N   VAL A   7      40.831   3.288   3.003  0.00  0.00    -0.297 N 
ATOM     13  H   VAL A   7      41.182   2.424   2.543  0.00  0.00    +0.150 HD
ATOM     14  O   LYS A   6      39.422   5.033   2.903  0.00  0.00    -0.273 OA
BRANCH  12  15
ATOM     15  CA  VAL A   7      41.396   3.706   4.282  0.00  0.00    +0.149 C 
BRANCH  15  16
ATOM     16  C   VAL A   7      42.900   3.859   4.145  0.00  0.00    +0.241 C 
ATOM     17  N   PHE A   8      43.433   4.988   4.602  0.00  0.00    -0.298 N 
ATOM     18  H   PHE A   8      42.812   5.748   4.946  0.00  0.00    +0.150 HD
ATOM     19  O   VAL A   7      43.564   2.973   3.625  0.00  0.00    -0.273 OA
BRANCH  17  20
ATOM     20  CA  PHE A   8      44.878   5.172   4.626  0.00  0.00    +0.141 C 
BRANCH  20  21
ATOM     21  C   PHE A   8      45.440   4.787   5.984  0.00  0.00    +0.227 C 
ATOM     22  O   PHE A   8      44.914   5.204   7.012  0.00  0.00    -0.286 OA
ENDBRANCH  20  21
BRANCH  20  23
ATOM     23  CB  PHE A   8      45.227   6.629   4.338  0.00  0.00    +0.054 C 
BRANCH  23  24
ATOM     24  CG  PHE A   8      44.681   7.140   3.037  0.00  0.00    -0.020 A 
ATOM     25  CD2 PHE A   8      43.487   7.838   2.995  0.00  0.00    -0.004 A 
ATOM     26  CE2 PHE A   8      42.984   8.316   1.795  0.00  0.00    -0.000 A 
ATOM     27  CZ  PHE A   8      43.681   8.104   0.623  0.00  0.00    -0.000 A 
ATOM     28  CE1 PHE A   8      44.875   7.412   0.650  0.00  0.00    -0.000 A 
ATOM     29  CD1 PHE A   8      45.372   6.934   1.853  0.00  0.00    -0.004 A 
ENDBRANCH  23  24
ENDBRANCH  20  23
ENDBRANCH  17  20
ENDBRANCH  15  16
BRANCH  15  30
ATOM     30  CB  VAL A   7      41.100   2.677   5.391  0.00  0.00    +0.027 C 
ATOM     31  CG2 VAL A   7      41.815   3.061   6.694  0.00  0.00    +0.002 C 
ATOM     32  CG1 VAL A   7      39.597   2.546   5.603  0.00  0.00    +0.002 C 
ENDBRANCH  15  30
ENDBRANCH  12  15
ENDBRANCH  10  11
BRANCH  10  33
ATOM     33  CB  LYS A   6      39.613   4.508  -0.013  0.00  0.00    +0.029 C 
BRANCH  33  34
ATOM     34  CG  LYS A   6      41.076   4.758  -0.322  0.00  0.00    +0.000 C 
BRANCH  34  35
ATOM     35  CD  LYS A   6      41.183   5.653  -1.551  0.00  0.00    -0.024 C 
BRANCH  35  36
ATOM     36  CE  LYS A   6      42.615   5.775  -2.029  0.00  0.00    -0.086 C 
BRANCH  36  37
ATOM     37  NZ  LYS A   6      42.677   6.502  -3.331  0.00  0.00    +0.380 N 
ATOM     38  HZ1 LYS A   6      42.279   7.456  -3.213  0.00  0.00    -0.089 HD
ATOM     39  HZ2 LYS A   6      43.668   6.574  -3.640  0.00  0.00    -0.089 HD
ATOM     40  HZ3 LYS A   6      42.127   5.981  -4.044  0.00  0.00    -0.089 HD
ENDBRANCH  36  37
ENDBRANCH  35  36
ENDBRANCH  34  35
ENDBRANCH  33  34
ENDBRANCH  10  33
ENDBRANCH   8  10
ENDBRANCH   5   6
ENDBRANCH   3   5
BRANCH   1  41
ATOM     41  CA  PHE A   4      34.749   1.126   5.192  0.00  0.00    +0.153 C 
BRANCH  41  43
ATOM     42  C   SER A   3      32.886  -0.164   4.352  0.00  0.00    +0.243 C 
ATOM     43  N   PHE A   4      34.148  -0.126   4.761  0.00  0.00    -0.297 N 
ATOM     44  H   PHE A   4      34.712  -1.000   4.773  0.00  0.00    +0.150 HD
ATOM     45  O   SER A   3      32.165   0.834   4.325  0.00  0.00    -0.273 OA
BRANCH  42  46
ATOM     46  CA  SER A   3      32.361  -1.520   3.892  0.00  0.00    +0.178 C 
BRANCH  46  48
ATOM     47  C   GLY A   2      34.217  -2.272   2.501  0.00  0.00    +0.243 C 
ATOM     48  N   SER A   3      33.445  -2.441   3.572  0.00  0.00    -0.295 N 
ATOM     49  H   SER A   3      33.620  -3.253   4.198  0.00  0.00    +0.150 HD
ATOM     50  O   GLY A   2      34.153  -1.276   1.770  0.00  0.00    -0.273 OA
BRANCH  47  51
ATOM     51  CA  GLY A   2      35.210  -3.383   2.230  0.00  0.00    +0.176 C 
BRANCH  51  54
ATOM     52  C   GLN A   1      36.941  -2.343   3.579  0.00  0.00    +0.238 C 
ATOM     53  O   GLN A   1      36.126  -1.949   4.421  0.00  0.00    -0.274 OA
ATOM     54  N   GLY A   2      36.589  -3.025   2.496  0.00  0.00    -0.296 N 
ATOM     55  H   GLY A   2      37.324  -3.311   1.818  0.00  0.00    +0.150 HD
BRANCH  52  56
ATOM     56  CA  GLN A   1      38.438  -2.073   3.735  0.00  0.00    +0.145 C 
BRANCH  56  57
ATOM     57  N   GLN A   1      39.028  -1.419   2.567  0.00  0.00    -0.238 NA
ATOM     58  H   GLN A   1      38.783  -0.430   2.356  0.00  0.00    +0.142 HD
ENDBRANCH  56  57
BRANCH  56  59
ATOM     59  CB  GLN A   1      38.718  -1.274   5.017  0.00  0.00    +0.036 C 
BRANCH  59  60
ATOM     60  CG  GLN A   1      40.185  -1.275   5.442  0.00  0.00    +0.087 C 
BRANCH  60  61
ATOM     61  CD  GLN A   1      40.387  -0.895   6.913  0.00  0.00    +0.219 C 
ATOM     62  OE1 GLN A   1      39.430  -0.797   7.685  0.00  0.00    -0.275 OA
ATOM     63  NE2 GLN A   1      41.638  -0.690   7.301  0.00  0.00    -0.329 N 
ATOM     64 HE21 GLN A   1      41.841  -0.436   8.289  0.00  0.00    +0.145 HD
ATOM     65 HE22 GLN A   1      42.416  -0.783   6.617  0.00  0.00    +0.145 HD
ENDBRANCH  60  61
ENDBRANCH  59  60
ENDBRANCH  56  59
ENDBRANCH  52  56
ENDBRANCH  51  54
ENDBRANCH  47  51
ENDBRANCH  46  48
BRANCH  46  66
ATOM     66  CB  SER A   3      31.440  -2.122   4.955  0.00  0.00    +0.166 C 
BRANCH  66  67
ATOM     67  OG  SER A   3      30.193  -1.450   4.974  0.00  0.00    -0.380 OA
ATOM     68  H   SER A   3      29.613  -1.854   5.667  0.00  0.00    +0.211 HD
ENDBRANCH  66  67
ENDBRANCH  46  66
ENDBRANCH  42  46
ENDBRANCH  41  43
BRANCH  41  69
ATOM     69  CB  PHE A   4      35.895   0.865   6.172  0.00  0.00    +0.055 C 
BRANCH  69  70
ATOM     70  CG  PHE A   4      35.451   0.324   7.509  0.00  0.00    -0.020 A 
ATOM     71  CD2 PHE A   4      36.390  -0.051   8.454  0.00  0.00    -0.004 A 
ATOM     72  CE2 PHE A   4      35.998  -0.545   9.696  0.00  0.00    -0.000 A 
ATOM     73  CZ  PHE A   4      34.654  -0.660   9.986  0.00  0.00    -0.000 A 
ATOM     74  CE1 PHE A   4      33.708  -0.291   9.050  0.00  0.00    -0.000 A 
ATOM     75  CD1 PHE A   4      34.108   0.205   7.819  0.00  0.00    -0.004 A 
ENDBRANCH  69  70
ENDBRANCH  41  69
ENDBRANCH   1  41
TORSDOF 31
REMARK  Name = ../refined-set-2016/3ubd/3ubd_pocket.pdb
REMARK  237 active torsions:
REMARK  status: ('A' for Active; 'I' for Inactive)
REMARK    1  A    between atoms: _1  and  _5
REMARK    2  A    between atoms: _5  and  _6
REMARK    3  A    between atoms: _5  and  _8
REMARK    4  A    between atoms: _8  and  _9
REMARK    5  A    between atoms: _9  and  _10
REMARK    6  A    between atoms: _13  and  _15
REMARK    7  A    between atoms: _15  and  _16
REMARK    8  A    between atoms: _15  and  _18
REMARK    9  A    between atoms: _18  and  _19
REMARK   10  A    between atoms: _22  and  _24
REMARK   11  A    between atoms: _24  and  _25
REMARK   12  A    between atoms: _28  and  _30
REMARK   13  A    between atoms: _30  and  _31
REMARK   14  A    between atoms: _30  and  _33
REMARK   15  A    between atoms: _33  and  _34
REMARK   16  A    between atoms: _37  and  _39
REMARK   17  A    between atoms: _39  and  _40
REMARK   18  A    between atoms: _39  and  _42
REMARK   19  A    between atoms: _42  and  _43
REMARK   20  A    between atoms: _43  and  _44
REMARK   21  A    between atoms: _49  and  _51
REMARK   22  A    between atoms: _51  and  _52
REMARK   23  A    between atoms: _54  and  _56
REMARK   24  A    between atoms: _56  and  _57
REMARK   25  A    between atoms: _56  and  _59
REMARK   26  A    between atoms: _59  and  _60
REMARK   27  A    between atoms: _62  and  _64
REMARK   28  A    between atoms: _64  and  _65
REMARK   29  A    between atoms: _64  and  _67
REMARK   30  A    between atoms: _67  and  _68
REMARK   31  A    between atoms: _74  and  _76
REMARK   32  A    between atoms: _76  and  _77
REMARK   33  A    between atoms: _79  and  _81
REMARK   34  A    between atoms: _81  and  _82
REMARK   35  A    between atoms: _81  and  _84
REMARK   36  A    between atoms: _84  and  _85
REMARK   37  A    between atoms: _85  and  _86
REMARK   38  A    between atoms: _86  and  _87
REMARK   39  A    between atoms: _87  and  _88
REMARK   40  A    between atoms: _92  and  _94
REMARK   41  A    between atoms: _94  and  _95
REMARK   42  A    between atoms: _94  and  _97
REMARK   43  A    between atoms: _100  and  _102
REMARK   44  A    between atoms: _102  and  _103
REMARK   45  A    between atoms: _102  and  _105
REMARK   46  A    between atoms: _105  and  _106
REMARK   47  A    between atoms: _112  and  _114
REMARK   48  A    between atoms: _114  and  _115
REMARK   49  A    between atoms: _114  and  _117
REMARK   50  A    between atoms: _117  and  _118
REMARK   51  A    between atoms: _123  and  _124
REMARK   52  A    between atoms: _126  and  _128
REMARK   53  A    between atoms: _128  and  _129
REMARK   54  A    between atoms: _132  and  _134
REMARK   55  A    between atoms: _134  and  _135
REMARK   56  A    between atoms: _134  and  _137
REMARK   57  A    between atoms: _137  and  _138
REMARK   58  A    between atoms: _138  and  _139
REMARK   59  A    between atoms: _141  and  _143
REMARK   60  A    between atoms: _143  and  _144
REMARK   61  A    between atoms: _143  and  _146
REMARK   62  A    between atoms: _146  and  _147
REMARK   63  A    between atoms: _147  and  _148
REMARK   64  A    between atoms: _148  and  _149
REMARK   65  A    between atoms: _149  and  _150
REMARK   66  A    between atoms: _154  and  _156
REMARK   67  A    between atoms: _156  and  _157
REMARK   68  A    between atoms: _156  and  _159
REMARK   69  A    between atoms: _162  and  _164
REMARK   70  A    between atoms: _164  and  _165
REMARK   71  A    between atoms: _164  and  _167
REMARK   72  A    between atoms: _167  and  _168
REMARK   73  A    between atoms: _171  and  _173
REMARK   74  A    between atoms: _173  and  _174
REMARK   75  A    between atoms: _173  and  _176
REMARK   76  A    between atoms: _176  and  _177
REMARK   77  A    between atoms: _177  and  _178
REMARK   78  A    between atoms: _178  and  _179
REMARK   79  A    between atoms: _179  and  _180
REMARK   80  A    between atoms: _184  and  _186
REMARK   81  A    between atoms: _186  and  _187
REMARK   82  A    between atoms: _186  and  _189
REMARK   83  A    between atoms: _189  and  _190
REMARK   84  A    between atoms: _190  and  _191
REMARK   85  A    between atoms: _191  and  _192
REMARK   86  A    between atoms: _192  and  _193
REMARK   87  A    between atoms: _197  and  _199
REMARK   88  A    between atoms: _199  and  _200
REMARK   89  A    between atoms: _203  and  _205
REMARK   90  A    between atoms: _205  and  _206
REMARK   91  A    between atoms: _205  and  _208
REMARK   92  A    between atoms: _208  and  _209
REMARK   93  A    between atoms: _212  and  _214
REMARK   94  A    between atoms: _214  and  _215
REMARK   95  A    between atoms: _214  and  _217
REMARK   96  A    between atoms: _217  and  _218
REMARK   97  A    between atoms: _221  and  _223
REMARK   98  A    between atoms: _223  and  _224
REMARK   99  A    between atoms: _223  and  _226
REMARK  100  A    between atoms: _229  and  _231
REMARK  101  A    between atoms: _231  and  _232
REMARK  102  A    between atoms: _231  and  _234
REMARK  103  A    between atoms: _234  and  _235
REMARK  104  A    between atoms: _235  and  _236
REMARK  105  A    between atoms: _236  and  _237
REMARK  106  A    between atoms: _237  and  _238
REMARK  107  A    between atoms: _242  and  _244
REMARK  108  A    between atoms: _244  and  _245
REMARK  109  A    between atoms: _244  and  _247
REMARK  110  A    between atoms: _247  and  _248
REMARK  111  A    between atoms: _251  and  _253
REMARK  112  A    between atoms: _253  and  _254
REMARK  113  A    between atoms: _253  and  _256
REMARK  114  A    between atoms: _256  and  _257
REMARK  115  A    between atoms: _262  and  _264
REMARK  116  A    between atoms: _264  and  _265
REMARK  117  A    between atoms: _264  and  _267
REMARK  118  A    between atoms: _267  and  _268
REMARK  119  A    between atoms: _271  and  _273
REMARK  120  A    between atoms: _273  and  _274
REMARK  121  A    between atoms: _273  and  _276
REMARK  122  A    between atoms: _276  and  _277
REMARK  123  A    between atoms: _280  and  _282
REMARK  124  A    between atoms: _282  and  _283
REMARK  125  A    between atoms: _282  and  _285
REMARK  126  A    between atoms: _285  and  _286
REMARK  127  A    between atoms: _289  and  _291
REMARK  128  A    between atoms: _291  and  _292
REMARK  129  A    between atoms: _291  and  _294
REMARK  130  A    between atoms: _294  and  _295
REMARK  131  A    between atoms: _298  and  _300
REMARK  132  A    between atoms: _300  and  _301
REMARK  133  A    between atoms: _300  and  _303
REMARK  134  A    between atoms: _303  and  _304
REMARK  135  A    between atoms: _307  and  _309
REMARK  136  A    between atoms: _309  and  _310
REMARK  137  A    between atoms: _309  and  _312
REMARK  138  A    between atoms: _312  and  _313
REMARK  139  A    between atoms: _319  and  _321
REMARK  140  A    between atoms: _321  and  _322
REMARK  141  A    between atoms: _321  and  _324
REMARK  142  A    between atoms: _324  and  _325
REMARK  143  A    between atoms: _328  and  _330
REMARK  144  A    between atoms: _330  and  _331
REMARK  145  A    between atoms: _330  and  _333
REMARK  146  A    between atoms: _333  and  _334
REMARK  147  A    between atoms: _334  and  _335
REMARK  148  A    between atoms: _335  and  _336
REMARK  149  A    between atoms: _345  and  _347
REMARK  150  A    between atoms: _347  and  _348
REMARK  151  A    between atoms: _350  and  _352
REMARK  152  A    between atoms: _352  and  _353
REMARK  153  A    between atoms: _355  and  _357
REMARK  154  A    between atoms: _357  and  _358
REMARK  155  A    between atoms: _357  and  _360
REMARK  156  A    between atoms: _360  and  _361
REMARK  157  A    between atoms: _364  and  _366
REMARK  158  A    between atoms: _366  and  _367
REMARK  159  A    between atoms: _366  and  _369
REMARK  160  A    between atoms: _369  and  _370
REMARK  161  A    between atoms: _373  and  _375
REMARK  162  A    between atoms: _375  and  _376
REMARK  163  A    between atoms: _375  and  _378
REMARK  164  A    between atoms: _378  and  _379
REMARK  165  A    between atoms: _385  and  _387
REMARK  166  A    between atoms: _387  and  _388
REMARK  167  A    between atoms: _387  and  _390
REMARK  168  A    between atoms: _390  and  _391
REMARK  169  A    between atoms: _394  and  _396
REMARK  170  A    between atoms: _396  and  _397
REMARK  171  A    between atoms: _396  and  _399
REMARK  172  A    between atoms: _399  and  _400
REMARK  173  A    between atoms: _400  and  _401
REMARK  174  A    between atoms: _401  and  _402
REMARK  175  A    between atoms: _402  and  _403
REMARK  176  A    between atoms: _408  and  _409
REMARK  177  A    between atoms: _414  and  _416
REMARK  178  A    between atoms: _416  and  _417
REMARK  179  A    between atoms: _416  and  _419
REMARK  180  A    between atoms: _419  and  _420
REMARK  181  A    between atoms: _420  and  _421
REMARK  182  A    between atoms: _424  and  _426
REMARK  183  A    between atoms: _426  and  _427
REMARK  184  A    between atoms: _426  and  _429
REMARK  185  A    between atoms: _429  and  _430
REMARK  186  A    between atoms: _435  and  _437
REMARK  187  A    between atoms: _437  and  _438
REMARK  188  A    between atoms: _437  and  _440
REMARK  189  A    between atoms: _440  and  _441
REMARK  190  A    between atoms: _444  and  _446
REMARK  191  A    between atoms: _446  and  _447
REMARK  192  A    between atoms: _446  and  _449
REMARK  193  A    between atoms: _449  and  _450
REMARK  194  A    between atoms: _453  and  _455
REMARK  195  A    between atoms: _455  and  _456
REMARK  196  A    between atoms: _455  and  _458
REMARK  197  A    between atoms: _458  and  _459
REMARK  198  A    between atoms: _462  and  _464
REMARK  199  A    between atoms: _464  and  _465
REMARK  200  A    between atoms: _464  and  _467
REMARK  201  A    between atoms: _467  and  _468
REMARK  202  A    between atoms: _468  and  _469
REMARK  203  A    between atoms: _469  and  _470
REMARK  204  A    between atoms: _470  and  _471
REMARK  205  A    between atoms: _475  and  _477
REMARK  206  A    between atoms: _477  and  _478
REMARK  207  A    between atoms: _477  and  _480
REMARK  208  A    between atoms: _480  and  _481
REMARK  209  A    between atoms: _484  and  _486
REMARK  210  A    between atoms: _486  and  _487
REMARK  211  A    between atoms: _486  and  _489
REMARK  212  A    between atoms: _489  and  _490
REMARK  213  A    between atoms: _493  and  _495
REMARK  214  A    between atoms: _495  and  _496
REMARK  215  A    between atoms: _495  and  _498
REMARK  216  A    between atoms: _498  and  _499
REMARK  217  A    between atoms: _502  and  _504
REMARK  218  A    between atoms: _504  and  _505
REMARK  219  A    between atoms: _504  and  _507
REMARK  220  A    between atoms: _507  and  _508
REMARK  221  A    between atoms: _514  and  _516
REMARK  222  A    between atoms: _516  and  _517
REMARK  223  A    between atoms: _519  and  _521
REMARK  224  A    between atoms: _521  and  _522
REMARK  225  A    between atoms: _521  and  _524
REMARK  226  A    between atoms: _524  and  _525
REMARK  227  A    between atoms: _528  and  _530
REMARK  228  A    between atoms: _530  and  _531
REMARK  229  A    between atoms: _530  and  _533
REMARK  230  A    between atoms: _533  and  _534
REMARK  231  A    between atoms: _536  and  _538
REMARK  232  A    between atoms: _538  and  _539
REMARK  233  A    between atoms: _538  and  _541
REMARK  234  A    between atoms: _541  and  _542
REMARK  235  A    between atoms: _542  and  _543
REMARK  236  A    between atoms: _543  and  _544
REMARK  237  A    between atoms: _544  and  _545
REMARK                            x       y       z     vdW  Elec       q    Type
REMARK                         _______ _______ _______ _____ _____    ______ ____
ROOT
ATOM      1  C   VAL A   5      37.824  11.423   3.170  0.00  0.00    +0.241 C 
ATOM      2  N   LEU A   6      36.911  12.180   3.765  0.00  0.00    -0.297 N 
ATOM      3  H   LEU A   6      37.189  12.749   4.590  0.00  0.00    +0.150 HD
ATOM      4  O   VAL A   5      37.596  10.763   2.153  0.00  0.00    -0.273 OA
ENDROOT
BRANCH   2   5
ATOM      5  CA  LEU A   6      35.534  12.240   3.301  0.00  0.00    +0.149 C 
BRANCH   5   6
ATOM      6  C   LEU A   6      35.292  13.501   2.483  0.00  0.00    +0.241 C 
ATOM      7  O   LEU A   6      35.660  14.605   2.896  0.00  0.00    -0.273 OA
ATOM      8  N   LYS A   7      34.679  13.333   1.317  0.00  0.00    -0.297 N 
ATOM      9  H   LYS A   7      34.526  12.371   0.953  0.00  0.00    +0.150 HD
BRANCH   8  10
ATOM     10  CA  LYS A   7      34.219  14.475   0.542  0.00  0.00    +0.149 C 
BRANCH  10  11
ATOM     11  C   LYS A   7      32.829  14.834   1.035  0.00  0.00    +0.241 C 
ATOM     12  O   LYS A   7      32.045  13.953   1.390  0.00  0.00    -0.273 OA
ATOM     13  N   LYS A   8      32.520  16.122   1.065  0.00  0.00    -0.297 N 
ATOM     14  H   LYS A   8      33.218  16.827   0.752  0.00  0.00    +0.150 HD
BRANCH  13  15
ATOM     15  CA  LYS A   8      31.214  16.560   1.531  0.00  0.00    +0.149 C 
BRANCH  15  16
ATOM     16  C   LYS A   8      30.848  15.853   2.833  0.00  0.00    +0.241 C 
ATOM     17  N   ALA A   9      31.447  16.310   3.926  0.00  0.00    -0.297 N 
ATOM     18  H   ALA A   9      32.214  17.006   3.830  0.00  0.00    +0.150 HD
ATOM     19  O   LYS A   8      30.062  14.902   2.848  0.00  0.00    -0.273 OA
BRANCH  17  20
ATOM     20  CA  ALA A   9      31.058  15.862   5.255  0.00  0.00    +0.149 C 
ATOM     21  CB  ALA A   9      31.939  14.709   5.728  0.00  0.00    +0.031 C 
BRANCH  20  22
ATOM     22  C   ALA A   9      31.179  17.045   6.185  0.00  0.00    +0.241 C 
ATOM     23  N   THR A  10      30.270  17.131   7.145  0.00  0.00    -0.296 N 
ATOM     24  H   THR A  10      29.526  16.406   7.206  0.00  0.00    +0.150 HD
ATOM     25  O   ALA A   9      32.069  17.876   6.024  0.00  0.00    -0.273 OA
BRANCH  23  26
ATOM     26  CA  THR A  10      30.287  18.212   8.113  0.00  0.00    +0.164 C 
BRANCH  26  27
ATOM     27  C   THR A  10      30.961  17.716   9.382  0.00  0.00    +0.229 C 
ATOM     28  O   THR A  10      30.797  16.555   9.755  0.00  0.00    -0.286 OA
ENDBRANCH  26  27
BRANCH  26  29
ATOM     29  CB  THR A  10      28.871  18.679   8.453  0.00  0.00    +0.136 C 
ATOM     30  CG2 THR A  10      28.881  19.525   9.715  0.00  0.00    +0.034 C 
BRANCH  29  31
ATOM     31  OG1 THR A  10      28.362  19.470   7.371  0.00  0.00    -0.382 OA
ATOM     32  HG1 THR A  10      27.445  19.774   7.589  0.00  0.00    +0.210 HD
ENDBRANCH  29  31
ENDBRANCH  26  29
ENDBRANCH  23  26
ENDBRANCH  20  22
ENDBRANCH  17  20
ENDBRANCH  15  16
BRANCH  15  33
ATOM     33  CB  LYS A   8      30.144  16.296   0.469  0.00  0.00    +0.029 C 
BRANCH  33  34
ATOM     34  CG  LYS A   8      30.515  16.783  -0.927  0.00  0.00    +0.000 C 
BRANCH  34  35
ATOM     35  CD  LYS A   8      30.883  18.261  -0.928  0.00  0.00    -0.024 C 
BRANCH  35  36
ATOM     36  CE  LYS A   8      31.353  18.709  -2.303  0.00  0.00    -0.086 C 
BRANCH  36  37
ATOM     37  NZ  LYS A   8      31.783  20.134  -2.315  0.00  0.00    +0.380 N 
ATOM     38  HZ1 LYS A   8      32.569  20.263  -1.647  0.00  0.00    -0.089 HD
ATOM     39  HZ2 LYS A   8      30.985  20.738  -2.034  0.00  0.00    -0.089 HD
ATOM     40  HZ3 LYS A   8      32.094  20.393  -3.273  0.00  0.00    -0.089 HD
ENDBRANCH  36  37
ENDBRANCH  35  36
ENDBRANCH  34  35
ENDBRANCH  33  34
ENDBRANCH  15  33
ENDBRANCH  13  15
ENDBRANCH  10  11
BRANCH  10  41
ATOM     41  CB  LYS A   7      34.175  14.138  -0.947  0.00  0.00    +0.029 C 
BRANCH  41  42
ATOM     42  CG  LYS A   7      35.502  13.671  -1.526  0.00  0.00    +0.000 C 
BRANCH  42  43
ATOM     43  CD  LYS A   7      35.400  13.496  -3.035  0.00  0.00    -0.024 C 
BRANCH  43  44
ATOM     44  CE  LYS A   7      34.199  12.639  -3.405  0.00  0.00    -0.086 C 
BRANCH  44  45
ATOM     45  NZ  LYS A   7      33.998  12.577  -4.881  0.00  0.00    +0.380 N 
ATOM     46  HZ1 LYS A   7      33.170  11.984  -5.092  0.00  0.00    -0.089 HD
ATOM     47  HZ2 LYS A   7      33.841  13.537  -5.249  0.00  0.00    -0.089 HD
ATOM     48  HZ3 LYS A   7      34.843  12.167  -5.328  0.00  0.00    -0.089 HD
ENDBRANCH  44  45
ENDBRANCH  43  44
ENDBRANCH  42  43
ENDBRANCH  41  42
ENDBRANCH  10  41
ENDBRANCH   8  10
ENDBRANCH   5   6
BRANCH   5  49
ATOM     49  CB  LEU A   6      34.569  12.207   4.489  0.00  0.00    +0.029 C 
BRANCH  49  50
ATOM     50  CG  LEU A   6      34.635  10.977   5.407  0.00  0.00    +0.002 C 
ATOM     51  CD2 LEU A   6      33.686  11.138   6.584  0.00  0.00    +0.000 C 
ATOM     52  CD1 LEU A   6      34.334   9.699   4.652  0.00  0.00    +0.000 C 
ENDBRANCH  49  50
ENDBRANCH   5  49
ENDBRANCH   2   5
BRANCH   1  53
ATOM     53  CA  VAL A   5      39.194  11.387   3.830  0.00  0.00    +0.149 C 
BRANCH  53  56
ATOM     54  C   LYS A   4      39.459   9.909   5.731  0.00  0.00    +0.241 C 
ATOM     55  O   LYS A   4      39.497  10.856   6.518  0.00  0.00    -0.273 OA
ATOM     56  N   VAL A   5      39.380  10.069   4.414  0.00  0.00    -0.297 N 
ATOM     57  H   VAL A   5      39.452   9.239   3.792  0.00  0.00    +0.150 HD
BRANCH  54  58
ATOM     58  CA  LYS A   4      39.510   8.483   6.231  0.00  0.00    +0.149 C 
BRANCH  58  60
ATOM     59  C   MET A   3      41.689   7.725   7.031  0.00  0.00    +0.241 C 
ATOM     60  N   LYS A   4      40.570   8.408   7.228  0.00  0.00    -0.297 N 
ATOM     61  H   LYS A   4      40.444   8.910   8.130  0.00  0.00    +0.150 HD
ATOM     62  O   MET A   3      41.888   7.012   6.049  0.00  0.00    -0.273 OA
BRANCH  59  63
ATOM     63  CA  MET A   3      42.735   7.852   8.125  0.00  0.00    +0.149 C 
BRANCH  63  66
ATOM     64  C   ALA A   2      43.167   6.178   9.814  0.00  0.00    +0.241 C 
ATOM     65  O   ALA A   2      42.861   6.969  10.699  0.00  0.00    -0.273 OA
ATOM     66  N   MET A   3      43.201   6.536   8.537  0.00  0.00    -0.297 N 
ATOM     67  H   MET A   3      43.564   5.871   7.824  0.00  0.00    +0.150 HD
BRANCH  64  68
ATOM     68  CA  ALA A   2      43.549   4.739  10.143  0.00  0.00    +0.149 C 
ATOM     69  CB  ALA A   2      42.291   3.865  10.246  0.00  0.00    +0.031 C 
BRANCH  68  71
ATOM     70  C   TYR A   1      45.579   4.925  11.445  0.00  0.00    +0.239 C 
ATOM     71  N   ALA A   2      44.269   4.734  11.405  0.00  0.00    -0.297 N 
ATOM     72  H   ALA A   2      43.747   4.578  12.291  0.00  0.00    +0.150 HD
ATOM     73  O   TYR A   1      46.291   4.874  10.443  0.00  0.00    -0.274 OA
BRANCH  70  74
ATOM     74  CA  TYR A   1      46.166   5.227  12.815  0.00  0.00    +0.149 C 
BRANCH  74  75
ATOM     75  N   TYR A   1      47.597   4.956  12.825  0.00  0.00    -0.238 NA
ATOM     76  H   TYR A   1      48.167   5.224  11.997  0.00  0.00    +0.142 HD
ENDBRANCH  74  75
BRANCH  74  77
ATOM     77  CB  TYR A   1      45.894   6.703  13.106  0.00  0.00    +0.053 C 
BRANCH  77  78
ATOM     78  CG  TYR A   1      46.185   7.175  14.511  0.00  0.00    -0.020 A 
ATOM     79  CD2 TYR A   1      45.481   6.661  15.598  0.00  0.00    -0.001 A 
ATOM     80  CE2 TYR A   1      45.714   7.104  16.873  0.00  0.00    +0.036 A 
ATOM     81  CZ  TYR A   1      46.660   8.076  17.085  0.00  0.00    +0.134 A 
ATOM     82  CE1 TYR A   1      47.368   8.618  16.027  0.00  0.00    +0.036 A 
ATOM     83  CD1 TYR A   1      47.122   8.171  14.746  0.00  0.00    -0.001 A 
BRANCH  81  84
ATOM     84  OH  TYR A   1      46.880   8.506  18.364  0.00  0.00    -0.506 OA
ATOM     85  HH  TYR A   1      46.685   9.475  18.423  0.00  0.00    +0.292 HD
ENDBRANCH  81  84
ENDBRANCH  77  78
ENDBRANCH  74  77
ENDBRANCH  70  74
ENDBRANCH  68  71
ENDBRANCH  64  68
ENDBRANCH  63  66
BRANCH  63  86
ATOM     86  CB  MET A   3      43.891   8.732   7.638  0.00  0.00    +0.041 C 
BRANCH  86  87
ATOM     87  CG  MET A   3      43.429  10.094   7.132  0.00  0.00    +0.060 C 
BRANCH  87  88
ATOM     88  SD  MET A   3      44.772  11.188   6.616  0.00  0.00    -0.139 S 
ATOM     89  CE  MET A   3      45.469  10.237   5.267  0.00  0.00    +0.069 C 
ENDBRANCH  87  88
ENDBRANCH  86  87
ENDBRANCH  63  86
ENDBRANCH  59  63
ENDBRANCH  58  60
BRANCH  58  90
ATOM     90  CB  LYS A   4      38.155   8.143   6.849  0.00  0.00    +0.029 C 
BRANCH  90  91
ATOM     91  CG  LYS A   4      37.900   6.676   7.072  0.00  0.00    +0.000 C 
BRANCH  91  92
ATOM     92  CD  LYS A   4      37.868   5.901   5.746  0.00  0.00    -0.024 C 
BRANCH  92  93
ATOM     93  CE  LYS A   4      36.848   6.484   4.769  0.00  0.00    -0.086 C 
BRANCH  93  94
ATOM     94  NZ  LYS A   4      36.689   5.618   3.546  0.00  0.00    +0.380 N 
ATOM     95  HZ1 LYS A   4      36.365   4.672   3.832  0.00  0.00    -0.089 HD
ATOM     96  HZ2 LYS A   4      37.604   5.539   3.057  0.00  0.00    -0.089 HD
ATOM     97  HZ3 LYS A   4      35.989   6.047   2.908  0.00  0.00    -0.089 HD
ENDBRANCH  93  94
ENDBRANCH  92  93
ENDBRANCH  91  92
ENDBRANCH  90  91
ENDBRANCH  58  90
ENDBRANCH  54  58
ENDBRANCH  53  56
BRANCH  53  98
ATOM     98  CB  VAL A   5      40.275  11.706   2.788  0.00  0.00    +0.027 C 
ATOM     99  CG2 VAL A   5      41.656  11.413   3.347  0.00  0.00    +0.002 C 
ATOM    100  CG1 VAL A   5      40.171  13.168   2.363  0.00  0.00    +0.002 C 
ENDBRANCH  53  98
ENDBRANCH   1  53
TORSDOF 46
REMARK  Name = ../refined-set-2016/3ubd/3ubd_pocket.pdb
REMARK  237 active torsions:
REMARK  status: ('A' for Active; 'I' for Inactive)
REMARK    1  A    between atoms: _1  and  _5
REMARK    2  A    between atoms: _5  and  _6
REMARK    3  A    between atoms: _5  and  _8
REMARK    4  A    between atoms: _8  and  _9
REMARK    5  A    between atoms: _9  and  _10
REMARK    6  A    between atoms: _13  and  _15
REMARK    7  A    between atoms: _15  and  _16
REMARK    8  A    between atoms: _15  and  _18
REMARK    9  A    between atoms: _18  and  _19
REMARK   10  A    between atoms: _22  and  _24
REMARK   11  A    between atoms: _24  and  _25
REMARK   12  A    between atoms: _28  and  _30
REMARK   13  A    between atoms: _30  and  _31
REMARK   14  A    between atoms: _30  and  _33
REMARK   15  A    between atoms: _33  and  _34
REMARK   16  A    between atoms: _37  and  _39
REMARK   17  A    between atoms: _39  and  _40
REMARK   18  A    between atoms: _39  and  _42
REMARK   19  A    between atoms: _42  and  _43
REMARK   20  A    between atoms: _43  and  _44
REMARK   21  A    between atoms: _49  and  _51
REMARK   22  A    between atoms: _51  and  _52
REMARK   23  A    between atoms: _54  and  _56
REMARK   24  A    between atoms: _56  and  _57
REMARK   25  A    between atoms: _56  and  _59
REMARK   26  A    between atoms: _59  and  _60
REMARK   27  A    between atoms: _62  and  _64
REMARK   28  A    between atoms: _64  and  _65
REMARK   29  A    between atoms: _64  and  _67
REMARK   30  A    between atoms: _67  and  _68
REMARK   31  A    between atoms: _74  and  _76
REMARK   32  A    between atoms: _76  and  _77
REMARK   33  A    between atoms: _79  and  _81
REMARK   34  A    between atoms: _81  and  _82
REMARK   35  A    between atoms: _81  and  _84
REMARK   36  A    between atoms: _84  and  _85
REMARK   37  A    between atoms: _85  and  _86
REMARK   38  A    between atoms: _86  and  _87
REMARK   39  A    between atoms: _87  and  _88
REMARK   40  A    between atoms: _92  and  _94
REMARK   41  A    between atoms: _94  and  _95
REMARK   42  A    between atoms: _94  and  _97
REMARK   43  A    between atoms: _100  and  _102
REMARK   44  A    between atoms: _102  and  _103
REMARK   45  A    between atoms: _102  and  _105
REMARK   46  A    between atoms: _105  and  _106
REMARK   47  A    between atoms: _112  and  _114
REMARK   48  A    between atoms: _114  and  _115
REMARK   49  A    between atoms: _114  and  _117
REMARK   50  A    between atoms: _117  and  _118
REMARK   51  A    between atoms: _123  and  _124
REMARK   52  A    between atoms: _126  and  _128
REMARK   53  A    between atoms: _128  and  _129
REMARK   54  A    between atoms: _132  and  _134
REMARK   55  A    between atoms: _134  and  _135
REMARK   56  A    between atoms: _134  and  _137
REMARK   57  A    between atoms: _137  and  _138
REMARK   58  A    between atoms: _138  and  _139
REMARK   59  A    between atoms: _141  and  _143
REMARK   60  A    between atoms: _143  and  _144
REMARK   61  A    between atoms: _143  and  _146
REMARK   62  A    between atoms: _146  and  _147
REMARK   63  A    between atoms: _147  and  _148
REMARK   64  A    between atoms: _148  and  _149
REMARK   65  A    between atoms: _149  and  _150
REMARK   66  A    between atoms: _154  and  _156
REMARK   67  A    between atoms: _156  and  _157
REMARK   68  A    between atoms: _156  and  _159
REMARK   69  A    between atoms: _162  and  _164
REMARK   70  A    between atoms: _164  and  _165
REMARK   71  A    between atoms: _164  and  _167
REMARK   72  A    between atoms: _167  and  _168
REMARK   73  A    between atoms: _171  and  _173
REMARK   74  A    between atoms: _173  and  _174
REMARK   75  A    between atoms: _173  and  _176
REMARK   76  A    between atoms: _176  and  _177
REMARK   77  A    between atoms: _177  and  _178
REMARK   78  A    between atoms: _178  and  _179
REMARK   79  A    between atoms: _179  and  _180
REMARK   80  A    between atoms: _184  and  _186
REMARK   81  A    between atoms: _186  and  _187
REMARK   82  A    between atoms: _186  and  _189
REMARK   83  A    between atoms: _189  and  _190
REMARK   84  A    between atoms: _190  and  _191
REMARK   85  A    between atoms: _191  and  _192
REMARK   86  A    between atoms: _192  and  _193
REMARK   87  A    between atoms: _197  and  _199
REMARK   88  A    between atoms: _199  and  _200
REMARK   89  A    between atoms: _203  and  _205
REMARK   90  A    between atoms: _205  and  _206
REMARK   91  A    between atoms: _205  and  _208
REMARK   92  A    between atoms: _208  and  _209
REMARK   93  A    between atoms: _212  and  _214
REMARK   94  A    between atoms: _214  and  _215
REMARK   95  A    between atoms: _214  and  _217
REMARK   96  A    between atoms: _217  and  _218
REMARK   97  A    between atoms: _221  and  _223
REMARK   98  A    between atoms: _223  and  _224
REMARK   99  A    between atoms: _223  and  _226
REMARK  100  A    between atoms: _229  and  _231
REMARK  101  A    between atoms: _231  and  _232
REMARK  102  A    between atoms: _231  and  _234
REMARK  103  A    between atoms: _234  and  _235
REMARK  104  A    between atoms: _235  and  _236
REMARK  105  A    between atoms: _236  and  _237
REMARK  106  A    between atoms: _237  and  _238
REMARK  107  A    between atoms: _242  and  _244
REMARK  108  A    between atoms: _244  and  _245
REMARK  109  A    between atoms: _244  and  _247
REMARK  110  A    between atoms: _247  and  _248
REMARK  111  A    between atoms: _251  and  _253
REMARK  112  A    between atoms: _253  and  _254
REMARK  113  A    between atoms: _253  and  _256
REMARK  114  A    between atoms: _256  and  _257
REMARK  115  A    between atoms: _262  and  _264
REMARK  116  A    between atoms: _264  and  _265
REMARK  117  A    between atoms: _264  and  _267
REMARK  118  A    between atoms: _267  and  _268
REMARK  119  A    between atoms: _271  and  _273
REMARK  120  A    between atoms: _273  and  _274
REMARK  121  A    between atoms: _273  and  _276
REMARK  122  A    between atoms: _276  and  _277
REMARK  123  A    between atoms: _280  and  _282
REMARK  124  A    between atoms: _282  and  _283
REMARK  125  A    between atoms: _282  and  _285
REMARK  126  A    between atoms: _285  and  _286
REMARK  127  A    between atoms: _289  and  _291
REMARK  128  A    between atoms: _291  and  _292
REMARK  129  A    between atoms: _291  and  _294
REMARK  130  A    between atoms: _294  and  _295
REMARK  131  A    between atoms: _298  and  _300
REMARK  132  A    between atoms: _300  and  _301
REMARK  133  A    between atoms: _300  and  _303
REMARK  134  A    between atoms: _303  and  _304
REMARK  135  A    between atoms: _307  and  _309
REMARK  136  A    between atoms: _309  and  _310
REMARK  137  A    between atoms: _309  and  _312
REMARK  138  A    between atoms: _312  and  _313
REMARK  139  A    between atoms: _319  and  _321
REMARK  140  A    between atoms: _321  and  _322
REMARK  141  A    between atoms: _321  and  _324
REMARK  142  A    between atoms: _324  and  _325
REMARK  143  A    between atoms: _328  and  _330
REMARK  144  A    between atoms: _330  and  _331
REMARK  145  A    between atoms: _330  and  _333
REMARK  146  A    between atoms: _333  and  _334
REMARK  147  A    between atoms: _334  and  _335
REMARK  148  A    between atoms: _335  and  _336
REMARK  149  A    between atoms: _345  and  _347
REMARK  150  A    between atoms: _347  and  _348
REMARK  151  A    between atoms: _350  and  _352
REMARK  152  A    between atoms: _352  and  _353
REMARK  153  A    between atoms: _355  and  _357
REMARK  154  A    between atoms: _357  and  _358
REMARK  155  A    between atoms: _357  and  _360
REMARK  156  A    between atoms: _360  and  _361
REMARK  157  A    between atoms: _364  and  _366
REMARK  158  A    between atoms: _366  and  _367
REMARK  159  A    between atoms: _366  and  _369
REMARK  160  A    between atoms: _369  and  _370
REMARK  161  A    between atoms: _373  and  _375
REMARK  162  A    between atoms: _375  and  _376
REMARK  163  A    between atoms: _375  and  _378
REMARK  164  A    between atoms: _378  and  _379
REMARK  165  A    between atoms: _385  and  _387
REMARK  166  A    between atoms: _387  and  _388
REMARK  167  A    between atoms: _387  and  _390
REMARK  168  A    between atoms: _390  and  _391
REMARK  169  A    between atoms: _394  and  _396
REMARK  170  A    between atoms: _396  and  _397
REMARK  171  A    between atoms: _396  and  _399
REMARK  172  A    between atoms: _399  and  _400
REMARK  173  A    between atoms: _400  and  _401
REMARK  174  A    between atoms: _401  and  _402
REMARK  175  A    between atoms: _402  and  _403
REMARK  176  A    between atoms: _408  and  _409
REMARK  177  A    between atoms: _414  and  _416
REMARK  178  A    between atoms: _416  and  _417
REMARK  179  A    between atoms: _416  and  _419
REMARK  180  A    between atoms: _419  and  _420
REMARK  181  A    between atoms: _420  and  _421
REMARK  182  A    between atoms: _424  and  _426
REMARK  183  A    between atoms: _426  and  _427
REMARK  184  A    between atoms: _426  and  _429
REMARK  185  A    between atoms: _429  and  _430
REMARK  186  A    between atoms: _435  and  _437
REMARK  187  A    between atoms: _437  and  _438
REMARK  188  A    between atoms: _437  and  _440
REMARK  189  A    between atoms: _440  and  _441
REMARK  190  A    between atoms: _444  and  _446
REMARK  191  A    between atoms: _446  and  _447
REMARK  192  A    between atoms: _446  and  _449
REMARK  193  A    between atoms: _449  and  _450
REMARK  194  A    between atoms: _453  and  _455
REMARK  195  A    between atoms: _455  and  _456
REMARK  196  A    between atoms: _455  and  _458
REMARK  197  A    between atoms: _458  and  _459
REMARK  198  A    between atoms: _462  and  _464
REMARK  199  A    between atoms: _464  and  _465
REMARK  200  A    between atoms: _464  and  _467
REMARK  201  A    between atoms: _467  and  _468
REMARK  202  A    between atoms: _468  and  _469
REMARK  203  A    between atoms: _469  and  _470
REMARK  204  A    between atoms: _470  and  _471
REMARK  205  A    between atoms: _475  and  _477
REMARK  206  A    between atoms: _477  and  _478
REMARK  207  A    between atoms: _477  and  _480
REMARK  208  A    between atoms: _480  and  _481
REMARK  209  A    between atoms: _484  and  _486
REMARK  210  A    between atoms: _486  and  _487
REMARK  211  A    between atoms: _486  and  _489
REMARK  212  A    between atoms: _489  and  _490
REMARK  213  A    between atoms: _493  and  _495
REMARK  214  A    between atoms: _495  and  _496
REMARK  215  A    between atoms: _495  and  _498
REMARK  216  A    between atoms: _498  and  _499
REMARK  217  A    between atoms: _502  and  _504
REMARK  218  A    between atoms: _504  and  _505
REMARK  219  A    between atoms: _504  and  _507
REMARK  220  A    between atoms: _507  and  _508
REMARK  221  A    between atoms: _514  and  _516
REMARK  222  A    between atoms: _516  and  _517
REMARK  223  A    between atoms: _519  and  _521
REMARK  224  A    between atoms: _521  and  _522
REMARK  225  A    between atoms: _521  and  _524
REMARK  226  A    between atoms: _524  and  _525
REMARK  227  A    between atoms: _528  and  _530
REMARK  228  A    between atoms: _530  and  _531
REMARK  229  A    between atoms: _530  and  _533
REMARK  230  A    between atoms: _533  and  _534
REMARK  231  A    between atoms: _536  and  _538
REMARK  232  A    between atoms: _538  and  _539
REMARK  233  A    between atoms: _538  and  _541
REMARK  234  A    between atoms: _541  and  _542
REMARK  235  A    between atoms: _542  and  _543
REMARK  236  A    between atoms: _543  and  _544
REMARK  237  A    between atoms: _544  and  _545
REMARK                            x       y       z     vdW  Elec       q    Type
REMARK                         _______ _______ _______ _____ _____    ______ ____
ROOT
ATOM      1  CA  LYS A   3      38.236   6.366  18.919  0.00  0.00    +0.149 C 
ENDROOT
BRANCH   1   3
ATOM      2  C   VAL A   2      37.072   4.256  18.657  0.00  0.00    +0.241 C 
ATOM      3  N   LYS A   3      38.207   4.933  18.685  0.00  0.00    -0.297 N 
ATOM      4  H   LYS A   3      39.103   4.426  18.536  0.00  0.00    +0.150 HD
ATOM      5  O   VAL A   2      35.966   4.802  18.678  0.00  0.00    -0.273 OA
BRANCH   2   6
ATOM      6  CA  VAL A   2      37.224   2.752  18.551  0.00  0.00    +0.148 C 
BRANCH   6   9
ATOM      7  C   ILE A   1      36.774   1.464  20.556  0.00  0.00    +0.238 C 
ATOM      8  O   ILE A   1      37.943   1.073  20.657  0.00  0.00    -0.274 OA
ATOM      9  N   VAL A   2      36.307   2.104  19.486  0.00  0.00    -0.297 N 
ATOM     10  H   VAL A   2      35.282   2.143  19.314  0.00  0.00    +0.150 HD
BRANCH   7  11
ATOM     11  CA  ILE A   1      35.767   1.189  21.662  0.00  0.00    +0.145 C 
BRANCH  11  12
ATOM     12  CB  ILE A   1      35.963   2.240  22.776  0.00  0.00    +0.025 C 
ATOM     13  CG2 ILE A   1      36.099   3.656  22.187  0.00  0.00    +0.002 C 
BRANCH  12  14
ATOM     14  CG1 ILE A   1      34.776   2.195  23.733  0.00  0.00    +0.002 C 
ATOM     15  CD1 ILE A   1      35.057   2.826  25.081  0.00  0.00    +0.000 C 
ENDBRANCH  12  14
ENDBRANCH  11  12
BRANCH  11  16
ATOM     16  N   ILE A   1      35.947  -0.157  22.183  0.00  0.00    -0.238 NA
ATOM     17  H   ILE A   1      36.909  -0.483  22.404  0.00  0.00    +0.142 HD
ENDBRANCH  11  16
ENDBRANCH   7  11
ENDBRANCH   6   9
BRANCH   6  18
ATOM     18  CB  VAL A   2      37.054   2.305  17.069  0.00  0.00    +0.027 C 
ATOM     19  CG2 VAL A   2      37.510   0.869  16.885  0.00  0.00    +0.002 C 
ATOM     20  CG1 VAL A   2      35.625   2.520  16.573  0.00  0.00    +0.002 C 
ENDBRANCH   6  18
ENDBRANCH   2   6
ENDBRANCH   1   3
BRANCH   1  21
ATOM     21  C   LYS A   3      38.545   7.180  17.681  0.00  0.00    +0.241 C 
ATOM     22  N   LEU A   4      37.917   8.340  17.633  0.00  0.00    -0.297 N 
ATOM     23  H   LEU A   4      37.122   8.500  18.284  0.00  0.00    +0.150 HD
ATOM     24  O   LYS A   3      39.338   6.777  16.835  0.00  0.00    -0.273 OA
BRANCH  22  25
ATOM     25  CA  LEU A   4      38.287   9.413  16.705  0.00  0.00    +0.149 C 
BRANCH  25  26
ATOM     26  C   LEU A   4      39.285  10.309  17.437  0.00  0.00    +0.241 C 
ATOM     27  O   LEU A   4      38.943  11.005  18.393  0.00  0.00    -0.273 OA
ATOM     28  N   HIS A   5      40.537  10.269  17.001  0.00  0.00    -0.298 N 
ATOM     29  H   HIS A   5      40.764   9.701  16.160  0.00  0.00    +0.150 HD
BRANCH  28  30
ATOM     30  CA  HIS A   5      41.602  11.004  17.674  0.00  0.00    +0.143 C 
BRANCH  30  31
ATOM     31  C   HIS A   5      41.720  12.412  17.147  0.00  0.00    +0.227 C 
ATOM     32  O   HIS A   5      41.979  13.339  17.918  0.00  0.00    -0.286 OA
ENDBRANCH  30  31
BRANCH  30  33
ATOM     33  CB  HIS A   5      42.926  10.278  17.493  0.00  0.00    +0.075 C 
BRANCH  33  34
ATOM     34  CG  HIS A   5      42.967   8.957  18.178  0.00  0.00    +0.082 A 
ATOM     35  ND1 HIS A   5      43.380   8.813  19.485  0.00  0.00    -0.227 NA
ATOM     36  CE1 HIS A   5      43.289   7.542  19.831  0.00  0.00    +0.199 A 
ATOM     37  NE2 HIS A   5      42.810   6.863  18.803  0.00  0.00    -0.221 NA
ATOM     38  CD2 HIS A   5      42.591   7.727  17.759  0.00  0.00    +0.115 A 
ENDBRANCH  33  34
ENDBRANCH  30  33
ENDBRANCH  28  30
ENDBRANCH  25  26
BRANCH  25  39
ATOM     39  CB  LEU A   4      37.047  10.202  16.318  0.00  0.00    +0.029 C 
BRANCH  39  40
ATOM     40  CG  LEU A   4      37.233  11.374  15.340  0.00  0.00    +0.002 C 
ATOM     41  CD2 LEU A   4      35.873  12.006  15.150  0.00  0.00    +0.000 C 
ATOM     42  CD1 LEU A   4      37.803  10.911  14.007  0.00  0.00    +0.000 C 
ENDBRANCH  39  40
ENDBRANCH  25  39
ENDBRANCH  22  25
ENDBRANCH   1  21
BRANCH   1  43
ATOM     43  CB  LYS A   3      39.296   6.695  19.971  0.00  0.00    +0.029 C 
BRANCH  43  44
ATOM     44  CG  LYS A   3      39.084   5.977  21.285  0.00  0.00    +0.000 C 
BRANCH  44  45
ATOM     45  CD  LYS A   3      40.189   6.345  22.265  0.00  0.00    -0.024 C 
BRANCH  45  46
ATOM     46  CE  LYS A   3      39.939   5.668  23.600  0.00  0.00    -0.086 C 
BRANCH  46  47
ATOM     47  NZ  LYS A   3      40.925   6.122  24.598  0.00  0.00    +0.380 N 
ATOM     48  HZ1 LYS A   3      40.740   5.650  25.506  0.00  0.00    -0.089 HD
ATOM     49  HZ2 LYS A   3      40.845   7.152  24.719  0.00  0.00    -0.089 HD
ATOM     50  HZ3 LYS A   3      41.883   5.884  24.270  0.00  0.00    -0.089 HD
ENDBRANCH  46  47
ENDBRANCH  45  46
ENDBRANCH  44  45
ENDBRANCH  43  44
ENDBRANCH   1  43
TORSDOF 22
REMARK  Name = ../refined-set-2016/3ubd/3ubd_pocket.pdb
REMARK  237 active torsions:
REMARK  status: ('A' for Active; 'I' for Inactive)
REMARK    1  A    between atoms: _1  and  _5
REMARK    2  A    between atoms: _5  and  _6
REMARK    3  A    between atoms: _5  and  _8
REMARK    4  A    between atoms: _8  and  _9
REMARK    5  A    between atoms: _9  and  _10
REMARK    6  A    between atoms: _13  and  _15
REMARK    7  A    between atoms: _15  and  _16
REMARK    8  A    between atoms: _15  and  _18
REMARK    9  A    between atoms: _18  and  _19
REMARK   10  A    between atoms: _22  and  _24
REMARK   11  A    between atoms: _24  and  _25
REMARK   12  A    between atoms: _28  and  _30
REMARK   13  A    between atoms: _30  and  _31
REMARK   14  A    between atoms: _30  and  _33
REMARK   15  A    between atoms: _33  and  _34
REMARK   16  A    between atoms: _37  and  _39
REMARK   17  A    between atoms: _39  and  _40
REMARK   18  A    between atoms: _39  and  _42
REMARK   19  A    between atoms: _42  and  _43
REMARK   20  A    between atoms: _43  and  _44
REMARK   21  A    between atoms: _49  and  _51
REMARK   22  A    between atoms: _51  and  _52
REMARK   23  A    between atoms: _54  and  _56
REMARK   24  A    between atoms: _56  and  _57
REMARK   25  A    between atoms: _56  and  _59
REMARK   26  A    between atoms: _59  and  _60
REMARK   27  A    between atoms: _62  and  _64
REMARK   28  A    between atoms: _64  and  _65
REMARK   29  A    between atoms: _64  and  _67
REMARK   30  A    between atoms: _67  and  _68
REMARK   31  A    between atoms: _74  and  _76
REMARK   32  A    between atoms: _76  and  _77
REMARK   33  A    between atoms: _79  and  _81
REMARK   34  A    between atoms: _81  and  _82
REMARK   35  A    between atoms: _81  and  _84
REMARK   36  A    between atoms: _84  and  _85
REMARK   37  A    between atoms: _85  and  _86
REMARK   38  A    between atoms: _86  and  _87
REMARK   39  A    between atoms: _87  and  _88
REMARK   40  A    between atoms: _92  and  _94
REMARK   41  A    between atoms: _94  and  _95
REMARK   42  A    between atoms: _94  and  _97
REMARK   43  A    between atoms: _100  and  _102
REMARK   44  A    between atoms: _102  and  _103
REMARK   45  A    between atoms: _102  and  _105
REMARK   46  A    between atoms: _105  and  _106
REMARK   47  A    between atoms: _112  and  _114
REMARK   48  A    between atoms: _114  and  _115
REMARK   49  A    between atoms: _114  and  _117
REMARK   50  A    between atoms: _117  and  _118
REMARK   51  A    between atoms: _123  and  _124
REMARK   52  A    between atoms: _126  and  _128
REMARK   53  A    between atoms: _128  and  _129
REMARK   54  A    between atoms: _132  and  _134
REMARK   55  A    between atoms: _134  and  _135
REMARK   56  A    between atoms: _134  and  _137
REMARK   57  A    between atoms: _137  and  _138
REMARK   58  A    between atoms: _138  and  _139
REMARK   59  A    between atoms: _141  and  _143
REMARK   60  A    between atoms: _143  and  _144
REMARK   61  A    between atoms: _143  and  _146
REMARK   62  A    between atoms: _146  and  _147
REMARK   63  A    between atoms: _147  and  _148
REMARK   64  A    between atoms: _148  and  _149
REMARK   65  A    between atoms: _149  and  _150
REMARK   66  A    between atoms: _154  and  _156
REMARK   67  A    between atoms: _156  and  _157
REMARK   68  A    between atoms: _156  and  _159
REMARK   69  A    between atoms: _162  and  _164
REMARK   70  A    between atoms: _164  and  _165
REMARK   71  A    between atoms: _164  and  _167
REMARK   72  A    between atoms: _167  and  _168
REMARK   73  A    between atoms: _171  and  _173
REMARK   74  A    between atoms: _173  and  _174
REMARK   75  A    between atoms: _173  and  _176
REMARK   76  A    between atoms: _176  and  _177
REMARK   77  A    between atoms: _177  and  _178
REMARK   78  A    between atoms: _178  and  _179
REMARK   79  A    between atoms: _179  and  _180
REMARK   80  A    between atoms: _184  and  _186
REMARK   81  A    between atoms: _186  and  _187
REMARK   82  A    between atoms: _186  and  _189
REMARK   83  A    between atoms: _189  and  _190
REMARK   84  A    between atoms: _190  and  _191
REMARK   85  A    between atoms: _191  and  _192
REMARK   86  A    between atoms: _192  and  _193
REMARK   87  A    between atoms: _197  and  _199
REMARK   88  A    between atoms: _199  and  _200
REMARK   89  A    between atoms: _203  and  _205
REMARK   90  A    between atoms: _205  and  _206
REMARK   91  A    between atoms: _205  and  _208
REMARK   92  A    between atoms: _208  and  _209
REMARK   93  A    between atoms: _212  and  _214
REMARK   94  A    between atoms: _214  and  _215
REMARK   95  A    between atoms: _214  and  _217
REMARK   96  A    between atoms: _217  and  _218
REMARK   97  A    between atoms: _221  and  _223
REMARK   98  A    between atoms: _223  and  _224
REMARK   99  A    between atoms: _223  and  _226
REMARK  100  A    between atoms: _229  and  _231
REMARK  101  A    between atoms: _231  and  _232
REMARK  102  A    between atoms: _231  and  _234
REMARK  103  A    between atoms: _234  and  _235
REMARK  104  A    between atoms: _235  and  _236
REMARK  105  A    between atoms: _236  and  _237
REMARK  106  A    between atoms: _237  and  _238
REMARK  107  A    between atoms: _242  and  _244
REMARK  108  A    between atoms: _244  and  _245
REMARK  109  A    between atoms: _244  and  _247
REMARK  110  A    between atoms: _247  and  _248
REMARK  111  A    between atoms: _251  and  _253
REMARK  112  A    between atoms: _253  and  _254
REMARK  113  A    between atoms: _253  and  _256
REMARK  114  A    between atoms: _256  and  _257
REMARK  115  A    between atoms: _262  and  _264
REMARK  116  A    between atoms: _264  and  _265
REMARK  117  A    between atoms: _264  and  _267
REMARK  118  A    between atoms: _267  and  _268
REMARK  119  A    between atoms: _271  and  _273
REMARK  120  A    between atoms: _273  and  _274
REMARK  121  A    between atoms: _273  and  _276
REMARK  122  A    between atoms: _276  and  _277
REMARK  123  A    between atoms: _280  and  _282
REMARK  124  A    between atoms: _282  and  _283
REMARK  125  A    between atoms: _282  and  _285
REMARK  126  A    between atoms: _285  and  _286
REMARK  127  A    between atoms: _289  and  _291
REMARK  128  A    between atoms: _291  and  _292
REMARK  129  A    between atoms: _291  and  _294
REMARK  130  A    between atoms: _294  and  _295
REMARK  131  A    between atoms: _298  and  _300
REMARK  132  A    between atoms: _300  and  _301
REMARK  133  A    between atoms: _300  and  _303
REMARK  134  A    between atoms: _303  and  _304
REMARK  135  A    between atoms: _307  and  _309
REMARK  136  A    between atoms: _309  and  _310
REMARK  137  A    between atoms: _309  and  _312
REMARK  138  A    between atoms: _312  and  _313
REMARK  139  A    between atoms: _319  and  _321
REMARK  140  A    between atoms: _321  and  _322
REMARK  141  A    between atoms: _321  and  _324
REMARK  142  A    between atoms: _324  and  _325
REMARK  143  A    between atoms: _328  and  _330
REMARK  144  A    between atoms: _330  and  _331
REMARK  145  A    between atoms: _330  and  _333
REMARK  146  A    between atoms: _333  and  _334
REMARK  147  A    between atoms: _334  and  _335
REMARK  148  A    between atoms: _335  and  _336
REMARK  149  A    between atoms: _345  and  _347
REMARK  150  A    between atoms: _347  and  _348
REMARK  151  A    between atoms: _350  and  _352
REMARK  152  A    between atoms: _352  and  _353
REMARK  153  A    between atoms: _355  and  _357
REMARK  154  A    between atoms: _357  and  _358
REMARK  155  A    between atoms: _357  and  _360
REMARK  156  A    between atoms: _360  and  _361
REMARK  157  A    between atoms: _364  and  _366
REMARK  158  A    between atoms: _366  and  _367
REMARK  159  A    between atoms: _366  and  _369
REMARK  160  A    between atoms: _369  and  _370
REMARK  161  A    between atoms: _373  and  _375
REMARK  162  A    between atoms: _375  and  _376
REMARK  163  A    between atoms: _375  and  _378
REMARK  164  A    between atoms: _378  and  _379
REMARK  165  A    between atoms: _385  and  _387
REMARK  166  A    between atoms: _387  and  _388
REMARK  167  A    between atoms: _387  and  _390
REMARK  168  A    between atoms: _390  and  _391
REMARK  169  A    between atoms: _394  and  _396
REMARK  170  A    between atoms: _396  and  _397
REMARK  171  A    between atoms: _396  and  _399
REMARK  172  A    between atoms: _399  and  _400
REMARK  173  A    between atoms: _400  and  _401
REMARK  174  A    between atoms: _401  and  _402
REMARK  175  A    between atoms: _402  and  _403
REMARK  176  A    between atoms: _408  and  _409
REMARK  177  A    between atoms: _414  and  _416
REMARK  178  A    between atoms: _416  and  _417
REMARK  179  A    between atoms: _416  and  _419
REMARK  180  A    between atoms: _419  and  _420
REMARK  181  A    between atoms: _420  and  _421
REMARK  182  A    between atoms: _424  and  _426
REMARK  183  A    between atoms: _426  and  _427
REMARK  184  A    between atoms: _426  and  _429
REMARK  185  A    between atoms: _429  and  _430
REMARK  186  A    between atoms: _435  and  _437
REMARK  187  A    between atoms: _437  and  _438
REMARK  188  A    between atoms: _437  and  _440
REMARK  189  A    between atoms: _440  and  _441
REMARK  190  A    between atoms: _444  and  _446
REMARK  191  A    between atoms: _446  and  _447
REMARK  192  A    between atoms: _446  and  _449
REMARK  193  A    between atoms: _449  and  _450
REMARK  194  A    between atoms: _453  and  _455
REMARK  195  A    between atoms: _455  and  _456
REMARK  196  A    between atoms: _455  and  _458
REMARK  197  A    between atoms: _458  and  _459
REMARK  198  A    between atoms: _462  and  _464
REMARK  199  A    between atoms: _464  and  _465
REMARK  200  A    between atoms: _464  and  _467
REMARK  201  A    between atoms: _467  and  _468
REMARK  202  A    between atoms: _468  and  _469
REMARK  203  A    between atoms: _469  and  _470
REMARK  204  A    between atoms: _470  and  _471
REMARK  205  A    between atoms: _475  and  _477
REMARK  206  A    between atoms: _477  and  _478
REMARK  207  A    between atoms: _477  and  _480
REMARK  208  A    between atoms: _480  and  _481
REMARK  209  A    between atoms: _484  and  _486
REMARK  210  A    between atoms: _486  and  _487
REMARK  211  A    between atoms: _486  and  _489
REMARK  212  A    between atoms: _489  and  _490
REMARK  213  A    between atoms: _493  and  _495
REMARK  214  A    between atoms: _495  and  _496
REMARK  215  A    between atoms: _495  and  _498
REMARK  216  A    between atoms: _498  and  _499
REMARK  217  A    between atoms: _502  and  _504
REMARK  218  A    between atoms: _504  and  _505
REMARK  219  A    between atoms: _504  and  _507
REMARK  220  A    between atoms: _507  and  _508
REMARK  221  A    between atoms: _514  and  _516
REMARK  222  A    between atoms: _516  and  _517
REMARK  223  A    between atoms: _519  and  _521
REMARK  224  A    between atoms: _521  and  _522
REMARK  225  A    between atoms: _521  and  _524
REMARK  226  A    between atoms: _524  and  _525
REMARK  227  A    between atoms: _528  and  _530
REMARK  228  A    between atoms: _530  and  _531
REMARK  229  A    between atoms: _530  and  _533
REMARK  230  A    between atoms: _533  and  _534
REMARK  231  A    between atoms: _536  and  _538
REMARK  232  A    between atoms: _538  and  _539
REMARK  233  A    between atoms: _538  and  _541
REMARK  234  A    between atoms: _541  and  _542
REMARK  235  A    between atoms: _542  and  _543
REMARK  236  A    between atoms: _543  and  _544
REMARK  237  A    between atoms: _544  and  _545
REMARK                            x       y       z     vdW  Elec       q    Type
REMARK                         _______ _______ _______ _____ _____    ______ ____
ROOT
ATOM      1  CA  LEU A   1      37.100  16.103   6.130  0.00  0.00    +0.133 C 
ENDROOT
BRANCH   1   2
ATOM      2  N   LEU A   1      37.047  16.381   4.695  0.00  0.00    -0.239 NA
ATOM      3  H   LEU A   1      36.448  15.789   4.085  0.00  0.00    +0.142 HD
ENDBRANCH   1   2
BRANCH   1   4
ATOM      4  C   LEU A   1      38.013  14.908   6.382  0.00  0.00    +0.224 C 
ATOM      5  O   LEU A   1      37.766  13.818   5.877  0.00  0.00    -0.287 OA
ENDBRANCH   1   4
BRANCH   1   6
ATOM      6  CB  LEU A   1      35.704  15.832   6.694  0.00  0.00    +0.025 C 
BRANCH   6   7
ATOM      7  CG  LEU A   1      35.657  15.462   8.183  0.00  0.00    +0.002 C 
ATOM      8  CD2 LEU A   1      36.280  16.570   9.013  0.00  0.00    +0.000 C 
ATOM      9  CD1 LEU A   1      34.223  15.199   8.611  0.00  0.00    +0.000 C 
ENDBRANCH   6   7
ENDBRANCH   1   6
TORSDOF 4
REMARK  Name = ../refined-set-2016/3ubd/3ubd_pocket.pdb
REMARK  237 active torsions:
REMARK  status: ('A' for Active; 'I' for Inactive)
REMARK    1  A    between atoms: _1  and  _5
REMARK    2  A    between atoms: _5  and  _6
REMARK    3  A    between atoms: _5  and  _8
REMARK    4  A    between atoms: _8  and  _9
REMARK    5  A    between atoms: _9  and  _10
REMARK    6  A    between atoms: _13  and  _15
REMARK    7  A    between atoms: _15  and  _16
REMARK    8  A    between atoms: _15  and  _18
REMARK    9  A    between atoms: _18  and  _19
REMARK   10  A    between atoms: _22  and  _24
REMARK   11  A    between atoms: _24  and  _25
REMARK   12  A    between atoms: _28  and  _30
REMARK   13  A    between atoms: _30  and  _31
REMARK   14  A    between atoms: _30  and  _33
REMARK   15  A    between atoms: _33  and  _34
REMARK   16  A    between atoms: _37  and  _39
REMARK   17  A    between atoms: _39  and  _40
REMARK   18  A    between atoms: _39  and  _42
REMARK   19  A    between atoms: _42  and  _43
REMARK   20  A    between atoms: _43  and  _44
REMARK   21  A    between atoms: _49  and  _51
REMARK   22  A    between atoms: _51  and  _52
REMARK   23  A    between atoms: _54  and  _56
REMARK   24  A    between atoms: _56  and  _57
REMARK   25  A    between atoms: _56  and  _59
REMARK   26  A    between atoms: _59  and  _60
REMARK   27  A    between atoms: _62  and  _64
REMARK   28  A    between atoms: _64  and  _65
REMARK   29  A    between atoms: _64  and  _67
REMARK   30  A    between atoms: _67  and  _68
REMARK   31  A    between atoms: _74  and  _76
REMARK   32  A    between atoms: _76  and  _77
REMARK   33  A    between atoms: _79  and  _81
REMARK   34  A    between atoms: _81  and  _82
REMARK   35  A    between atoms: _81  and  _84
REMARK   36  A    between atoms: _84  and  _85
REMARK   37  A    between atoms: _85  and  _86
REMARK   38  A    between atoms: _86  and  _87
REMARK   39  A    between atoms: _87  and  _88
REMARK   40  A    between atoms: _92  and  _94
REMARK   41  A    between atoms: _94  and  _95
REMARK   42  A    between atoms: _94  and  _97
REMARK   43  A    between atoms: _100  and  _102
REMARK   44  A    between atoms: _102  and  _103
REMARK   45  A    between atoms: _102  and  _105
REMARK   46  A    between atoms: _105  and  _106
REMARK   47  A    between atoms: _112  and  _114
REMARK   48  A    between atoms: _114  and  _115
REMARK   49  A    between atoms: _114  and  _117
REMARK   50  A    between atoms: _117  and  _118
REMARK   51  A    between atoms: _123  and  _124
REMARK   52  A    between atoms: _126  and  _128
REMARK   53  A    between atoms: _128  and  _129
REMARK   54  A    between atoms: _132  and  _134
REMARK   55  A    between atoms: _134  and  _135
REMARK   56  A    between atoms: _134  and  _137
REMARK   57  A    between atoms: _137  and  _138
REMARK   58  A    between atoms: _138  and  _139
REMARK   59  A    between atoms: _141  and  _143
REMARK   60  A    between atoms: _143  and  _144
REMARK   61  A    between atoms: _143  and  _146
REMARK   62  A    between atoms: _146  and  _147
REMARK   63  A    between atoms: _147  and  _148
REMARK   64  A    between atoms: _148  and  _149
REMARK   65  A    between atoms: _149  and  _150
REMARK   66  A    between atoms: _154  and  _156
REMARK   67  A    between atoms: _156  and  _157
REMARK   68  A    between atoms: _156  and  _159
REMARK   69  A    between atoms: _162  and  _164
REMARK   70  A    between atoms: _164  and  _165
REMARK   71  A    between atoms: _164  and  _167
REMARK   72  A    between atoms: _167  and  _168
REMARK   73  A    between atoms: _171  and  _173
REMARK   74  A    between atoms: _173  and  _174
REMARK   75  A    between atoms: _173  and  _176
REMARK   76  A    between atoms: _176  and  _177
REMARK   77  A    between atoms: _177  and  _178
REMARK   78  A    between atoms: _178  and  _179
REMARK   79  A    between atoms: _179  and  _180
REMARK   80  A    between atoms: _184  and  _186
REMARK   81  A    between atoms: _186  and  _187
REMARK   82  A    between atoms: _186  and  _189
REMARK   83  A    between atoms: _189  and  _190
REMARK   84  A    between atoms: _190  and  _191
REMARK   85  A    between atoms: _191  and  _192
REMARK   86  A    between atoms: _192  and  _193
REMARK   87  A    between atoms: _197  and  _199
REMARK   88  A    between atoms: _199  and  _200
REMARK   89  A    between atoms: _203  and  _205
REMARK   90  A    between atoms: _205  and  _206
REMARK   91  A    between atoms: _205  and  _208
REMARK   92  A    between atoms: _208  and  _209
REMARK   93  A    between atoms: _212  and  _214
REMARK   94  A    between atoms: _214  and  _215
REMARK   95  A    between atoms: _214  and  _217
REMARK   96  A    between atoms: _217  and  _218
REMARK   97  A    between atoms: _221  and  _223
REMARK   98  A    between atoms: _223  and  _224
REMARK   99  A    between atoms: _223  and  _226
REMARK  100  A    between atoms: _229  and  _231
REMARK  101  A    between atoms: _231  and  _232
REMARK  102  A    between atoms: _231  and  _234
REMARK  103  A    between atoms: _234  and  _235
REMARK  104  A    between atoms: _235  and  _236
REMARK  105  A    between atoms: _236  and  _237
REMARK  106  A    between atoms: _237  and  _238
REMARK  107  A    between atoms: _242  and  _244
REMARK  108  A    between atoms: _244  and  _245
REMARK  109  A    between atoms: _244  and  _247
REMARK  110  A    between atoms: _247  and  _248
REMARK  111  A    between atoms: _251  and  _253
REMARK  112  A    between atoms: _253  and  _254
REMARK  113  A    between atoms: _253  and  _256
REMARK  114  A    between atoms: _256  and  _257
REMARK  115  A    between atoms: _262  and  _264
REMARK  116  A    between atoms: _264  and  _265
REMARK  117  A    between atoms: _264  and  _267
REMARK  118  A    between atoms: _267  and  _268
REMARK  119  A    between atoms: _271  and  _273
REMARK  120  A    between atoms: _273  and  _274
REMARK  121  A    between atoms: _273  and  _276
REMARK  122  A    between atoms: _276  and  _277
REMARK  123  A    between atoms: _280  and  _282
REMARK  124  A    between atoms: _282  and  _283
REMARK  125  A    between atoms: _282  and  _285
REMARK  126  A    between atoms: _285  and  _286
REMARK  127  A    between atoms: _289  and  _291
REMARK  128  A    between atoms: _291  and  _292
REMARK  129  A    between atoms: _291  and  _294
REMARK  130  A    between atoms: _294  and  _295
REMARK  131  A    between atoms: _298  and  _300
REMARK  132  A    between atoms: _300  and  _301
REMARK  133  A    between atoms: _300  and  _303
REMARK  134  A    between atoms: _303  and  _304
REMARK  135  A    between atoms: _307  and  _309
REMARK  136  A    between atoms: _309  and  _310
REMARK  137  A    between atoms: _309  and  _312
REMARK  138  A    between atoms: _312  and  _313
REMARK  139  A    between atoms: _319  and  _321
REMARK  140  A    between atoms: _321  and  _322
REMARK  141  A    between atoms: _321  and  _324
REMARK  142  A    between atoms: _324  and  _325
REMARK  143  A    between atoms: _328  and  _330
REMARK  144  A    between atoms: _330  and  _331
REMARK  145  A    between atoms: _330  and  _333
REMARK  146  A    between atoms: _333  and  _334
REMARK  147  A    between atoms: _334  and  _335
REMARK  148  A    between atoms: _335  and  _336
REMARK  149  A    between atoms: _345  and  _347
REMARK  150  A    between atoms: _347  and  _348
REMARK  151  A    between atoms: _350  and  _352
REMARK  152  A    between atoms: _352  and  _353
REMARK  153  A    between atoms: _355  and  _357
REMARK  154  A    between atoms: _357  and  _358
REMARK  155  A    between atoms: _357  and  _360
REMARK  156  A    between atoms: _360  and  _361
REMARK  157  A    between atoms: _364  and  _366
REMARK  158  A    between atoms: _366  and  _367
REMARK  159  A    between atoms: _366  and  _369
REMARK  160  A    between atoms: _369  and  _370
REMARK  161  A    between atoms: _373  and  _375
REMARK  162  A    between atoms: _375  and  _376
REMARK  163  A    between atoms: _375  and  _378
REMARK  164  A    between atoms: _378  and  _379
REMARK  165  A    between atoms: _385  and  _387
REMARK  166  A    between atoms: _387  and  _388
REMARK  167  A    between atoms: _387  and  _390
REMARK  168  A    between atoms: _390  and  _391
REMARK  169  A    between atoms: _394  and  _396
REMARK  170  A    between atoms: _396  and  _397
REMARK  171  A    between atoms: _396  and  _399
REMARK  172  A    between atoms: _399  and  _400
REMARK  173  A    between atoms: _400  and  _401
REMARK  174  A    between atoms: _401  and  _402
REMARK  175  A    between atoms: _402  and  _403
REMARK  176  A    between atoms: _408  and  _409
REMARK  177  A    between atoms: _414  and  _416
REMARK  178  A    between atoms: _416  and  _417
REMARK  179  A    between atoms: _416  and  _419
REMARK  180  A    between atoms: _419  and  _420
REMARK  181  A    between atoms: _420  and  _421
REMARK  182  A    between atoms: _424  and  _426
REMARK  183  A    between atoms: _426  and  _427
REMARK  184  A    between atoms: _426  and  _429
REMARK  185  A    between atoms: _429  and  _430
REMARK  186  A    between atoms: _435  and  _437
REMARK  187  A    between atoms: _437  and  _438
REMARK  188  A    between atoms: _437  and  _440
REMARK  189  A    between atoms: _440  and  _441
REMARK  190  A    between atoms: _444  and  _446
REMARK  191  A    between atoms: _446  and  _447
REMARK  192  A    between atoms: _446  and  _449
REMARK  193  A    between atoms: _449  and  _450
REMARK  194  A    between atoms: _453  and  _455
REMARK  195  A    between atoms: _455  and  _456
REMARK  196  A    between atoms: _455  and  _458
REMARK  197  A    between atoms: _458  and  _459
REMARK  198  A    between atoms: _462  and  _464
REMARK  199  A    between atoms: _464  and  _465
REMARK  200  A    between atoms: _464  and  _467
REMARK  201  A    between atoms: _467  and  _468
REMARK  202  A    between atoms: _468  and  _469
REMARK  203  A    between atoms: _469  and  _470
REMARK  204  A    between atoms: _470  and  _471
REMARK  205  A    between atoms: _475  and  _477
REMARK  206  A    between atoms: _477  and  _478
REMARK  207  A    between atoms: _477  and  _480
REMARK  208  A    between atoms: _480  and  _481
REMARK  209  A    between atoms: _484  and  _486
REMARK  210  A    between atoms: _486  and  _487
REMARK  211  A    between atoms: _486  and  _489
REMARK  212  A    between atoms: _489  and  _490
REMARK  213  A    between atoms: _493  and  _495
REMARK  214  A    between atoms: _495  and  _496
REMARK  215  A    between atoms: _495  and  _498
REMARK  216  A    between atoms: _498  and  _499
REMARK  217  A    between atoms: _502  and  _504
REMARK  218  A    between atoms: _504  and  _505
REMARK  219  A    between atoms: _504  and  _507
REMARK  220  A    between atoms: _507  and  _508
REMARK  221  A    between atoms: _514  and  _516
REMARK  222  A    between atoms: _516  and  _517
REMARK  223  A    between atoms: _519  and  _521
REMARK  224  A    between atoms: _521  and  _522
REMARK  225  A    between atoms: _521  and  _524
REMARK  226  A    between atoms: _524  and  _525
REMARK  227  A    between atoms: _528  and  _530
REMARK  228  A    between atoms: _530  and  _531
REMARK  229  A    between atoms: _530  and  _533
REMARK  230  A    between atoms: _533  and  _534
REMARK  231  A    between atoms: _536  and  _538
REMARK  232  A    between atoms: _538  and  _539
REMARK  233  A    between atoms: _538  and  _541
REMARK  234  A    between atoms: _541  and  _542
REMARK  235  A    between atoms: _542  and  _543
REMARK  236  A    between atoms: _543  and  _544
REMARK  237  A    between atoms: _544  and  _545
REMARK                            x       y       z     vdW  Elec       q    Type
REMARK                         _______ _______ _______ _____ _____    ______ ____
ROOT
ATOM      1  CA  ARG A   7      41.586  -4.280  10.504  0.00  0.00    +0.149 C 
ENDROOT
BRANCH   1   3
ATOM      2  C   LEU A   6      40.433  -2.401  11.546  0.00  0.00    +0.241 C 
ATOM      3  N   ARG A   7      41.385  -3.327  11.593  0.00  0.00    -0.297 N 
ATOM      4  H   ARG A   7      42.004  -3.375  12.428  0.00  0.00    +0.150 HD
ATOM      5  O   LEU A   6      39.617  -2.319  10.627  0.00  0.00    -0.273 OA
BRANCH   2   6
ATOM      6  CA  LEU A   6      40.386  -1.424  12.713  0.00  0.00    +0.149 C 
BRANCH   6   9
ATOM      7  C   PHE A   5      42.209   0.063  13.361  0.00  0.00    +0.241 C 
ATOM      8  O   PHE A   5      42.341  -0.486  14.456  0.00  0.00    -0.273 OA
ATOM      9  N   LEU A   6      41.304  -0.315  12.460  0.00  0.00    -0.297 N 
ATOM     10  H   LEU A   6      41.249   0.192  11.553  0.00  0.00    +0.150 HD
BRANCH   7  11
ATOM     11  CA  PHE A   5      43.094   1.246  12.986  0.00  0.00    +0.153 C 
BRANCH  11  13
ATOM     12  C   ASP A   4      41.962   2.819  14.408  0.00  0.00    +0.241 C 
ATOM     13  N   PHE A   5      43.087   2.204  14.080  0.00  0.00    -0.297 N 
ATOM     14  H   PHE A   5      43.963   2.405  14.603  0.00  0.00    +0.150 HD
ATOM     15  O   ASP A   4      40.927   2.674  13.760  0.00  0.00    -0.273 OA
BRANCH  12  16
ATOM     16  CA  ASP A   4      41.983   3.701  15.661  0.00  0.00    +0.160 C 
BRANCH  16  18
ATOM     17  C   LEU A   3      41.713   5.676  14.303  0.00  0.00    +0.241 C 
ATOM     18  N   ASP A   4      41.323   4.966  15.360  0.00  0.00    -0.297 N 
ATOM     19  H   ASP A   4      40.552   5.312  15.967  0.00  0.00    +0.150 HD
ATOM     20  O   LEU A   3      42.729   5.402  13.669  0.00  0.00    -0.273 OA
BRANCH  17  21
ATOM     21  CA  LEU A   3      40.811   6.815  13.873  0.00  0.00    +0.149 C 
BRANCH  21  24
ATOM     22  C   ILE A   2      41.545   9.078  13.309  0.00  0.00    +0.241 C 
ATOM     23  O   ILE A   2      41.127   9.566  14.363  0.00  0.00    -0.273 OA
ATOM     24  N   LEU A   3      41.532   7.779  13.042  0.00  0.00    -0.297 N 
ATOM     25  H   LEU A   3      42.054   7.433  12.211  0.00  0.00    +0.150 HD
BRANCH  22  26
ATOM     26  CA  ILE A   2      42.108   9.971  12.212  0.00  0.00    +0.148 C 
BRANCH  26  28
ATOM     27  C   LEU A   1      40.457  10.666  10.562  0.00  0.00    +0.238 C 
ATOM     28  N   ILE A   2      41.021  10.828  11.758  0.00  0.00    -0.297 N 
ATOM     29  H   ILE A   2      40.677  11.585  12.383  0.00  0.00    +0.150 HD
ATOM     30  O   LEU A   1      40.843   9.826   9.747  0.00  0.00    -0.274 OA
BRANCH  27  31
ATOM     31  CA  LEU A   1      39.286  11.574  10.247  0.00  0.00    +0.145 C 
BRANCH  31  32
ATOM     32  N   LEU A   1      39.509  12.228   8.956  0.00  0.00    -0.238 NA
ATOM     33  H   LEU A   1      39.554  11.650   8.092  0.00  0.00    +0.142 HD
ENDBRANCH  31  32
BRANCH  31  34
ATOM     34  CB  LEU A   1      37.997  10.746  10.240  0.00  0.00    +0.026 C 
BRANCH  34  35
ATOM     35  CG  LEU A   1      36.676  11.397   9.819  0.00  0.00    +0.002 C 
ATOM     36  CD2 LEU A   1      36.337  12.565  10.706  0.00  0.00    +0.000 C 
ATOM     37  CD1 LEU A   1      35.555  10.358   9.862  0.00  0.00    +0.000 C 
ENDBRANCH  34  35
ENDBRANCH  31  34
ENDBRANCH  27  31
ENDBRANCH  26  28
BRANCH  26  38
ATOM     38  CB  ILE A   2      43.288  10.806  12.760  0.00  0.00    +0.027 C 
ATOM     39  CG2 ILE A   2      44.436   9.907  13.209  0.00  0.00    +0.002 C 
BRANCH  38  40
ATOM     40  CG1 ILE A   2      43.741  11.837  11.709  0.00  0.00    +0.002 C 
ATOM     41  CD1 ILE A   2      44.281  11.239  10.430  0.00  0.00    +0.000 C 
ENDBRANCH  38  40
ENDBRANCH  26  38
ENDBRANCH  22  26
ENDBRANCH  21  24
BRANCH  21  42
ATOM     42  CB  LEU A   3      39.679   6.221  13.034  0.00  0.00    +0.029 C 
BRANCH  42  43
ATOM     43  CG  LEU A   3      38.629   7.212  12.537  0.00  0.00    +0.002 C 
ATOM     44  CD2 LEU A   3      37.444   7.260  13.496  0.00  0.00    +0.000 C 
ATOM     45  CD1 LEU A   3      38.185   6.859  11.115  0.00  0.00    +0.000 C 
ENDBRANCH  42  43
ENDBRANCH  21  42
ENDBRANCH  17  21
ENDBRANCH  16  18
BRANCH  16  46
ATOM     46  CB  ASP A   4      41.242   2.975  16.778  0.00  0.00    +0.143 C 
BRANCH  46  47
ATOM     47  CG  ASP A   4      41.468   3.604  18.142  0.00  0.00    +0.367 C 
ATOM     48  OD2 ASP A   4      40.584   3.440  18.999  0.00  0.00    -0.246 OA
ATOM     49  OD1 ASP A   4      42.523   4.240  18.378  0.00  0.00    -0.246 OA
ENDBRANCH  46  47
ENDBRANCH  16  46
ENDBRANCH  12  16
ENDBRANCH  11  13
BRANCH  11  50
ATOM     50  CB  PHE A   5      44.521   0.778  12.701  0.00  0.00    +0.055 C 
BRANCH  50  51
ATOM     51  CG  PHE A   5      44.633  -0.198  11.555  0.00  0.00    -0.020 A 
ATOM     52  CD2 PHE A   5      45.400  -1.346  11.683  0.00  0.00    -0.004 A 
ATOM     53  CE2 PHE A   5      45.520  -2.246  10.632  0.00  0.00    -0.000 A 
ATOM     54  CZ  PHE A   5      44.872  -2.001   9.439  0.00  0.00    -0.000 A 
ATOM     55  CE1 PHE A   5      44.111  -0.854   9.290  0.00  0.00    -0.000 A 
ATOM     56  CD1 PHE A   5      43.996   0.043  10.349  0.00  0.00    -0.004 A 
ENDBRANCH  50  51
ENDBRANCH  11  50
ENDBRANCH   7  11
ENDBRANCH   6   9
BRANCH   6  57
ATOM     57  CB  LEU A   6      38.961  -0.900  12.913  0.00  0.00    +0.029 C 
BRANCH  57  58
ATOM     58  CG  LEU A   6      37.886  -1.917  13.322  0.00  0.00    +0.002 C 
ATOM     59  CD2 LEU A   6      38.233  -2.594  14.634  0.00  0.00    +0.000 C 
ATOM     60  CD1 LEU A   6      36.538  -1.217  13.411  0.00  0.00    +0.000 C 
ENDBRANCH  57  58
ENDBRANCH   6  57
ENDBRANCH   2   6
ENDBRANCH   1   3
BRANCH   1  61
ATOM     61  C   ARG A   7      40.371  -5.176  10.315  0.00  0.00    +0.241 C 
ATOM     62  O   ARG A   7      39.897  -5.796  11.257  0.00  0.00    -0.273 OA
ATOM     63  N   GLY A   8      39.869  -5.246   9.089  0.00  0.00    -0.295 N 
ATOM     64  H   GLY A   8      40.294  -4.679   8.328  0.00  0.00    +0.150 HD
BRANCH  63  65
ATOM     65  CA  GLY A   8      38.736  -6.102   8.795  0.00  0.00    +0.176 C 
BRANCH  65  66
ATOM     66  C   GLY A   8      37.461  -5.780   9.560  0.00  0.00    +0.243 C 
ATOM     67  N   GLY A   9      37.319  -4.538  10.011  0.00  0.00    -0.295 N 
ATOM     68  H   GLY A   9      38.089  -3.853   9.875  0.00  0.00    +0.150 HD
ATOM     69  O   GLY A   8      36.607  -6.650   9.736  0.00  0.00    -0.273 OA
BRANCH  67  70
ATOM     70  CA  GLY A   9      36.107  -4.123  10.690  0.00  0.00    +0.176 C 
BRANCH  70  71
ATOM     71  C   GLY A   9      34.874  -4.200   9.808  0.00  0.00    +0.243 C 
ATOM     72  N   ASP A  10      33.702  -4.321  10.424  0.00  0.00    -0.296 N 
ATOM     73  H   ASP A  10      33.681  -4.442  11.457  0.00  0.00    +0.150 HD
ATOM     74  O   GLY A   9      34.975  -4.150   8.573  0.00  0.00    -0.273 OA
BRANCH  72  75
ATOM     75  CA  ASP A  10      32.445  -4.288   9.685  0.00  0.00    +0.160 C 
BRANCH  75  76
ATOM     76  C   ASP A  10      31.361  -3.616  10.520  0.00  0.00    +0.241 C 
ATOM     77  O   ASP A  10      31.595  -3.261  11.673  0.00  0.00    -0.273 OA
ATOM     78  N   LEU A  11      30.182  -3.445   9.935  0.00  0.00    -0.297 N 
ATOM     79  H   LEU A  11      30.049  -3.809   8.970  0.00  0.00    +0.150 HD
BRANCH  78  80
ATOM     80  CA  LEU A  11      29.066  -2.771  10.582  0.00  0.00    +0.149 C 
BRANCH  80  81
ATOM     81  C   LEU A  11      28.197  -3.738  11.372  0.00  0.00    +0.241 C 
ATOM     82  N   PHE A  12      27.773  -3.338  12.567  0.00  0.00    -0.297 N 
ATOM     83  H   PHE A  12      28.092  -2.430  12.962  0.00  0.00    +0.150 HD
ATOM     84  O   LEU A  11      27.896  -4.833  10.901  0.00  0.00    -0.273 OA
BRANCH  82  85
ATOM     85  CA  PHE A  12      26.855  -4.189  13.316  0.00  0.00    +0.153 C 
BRANCH  85  86
ATOM     86  C   PHE A  12      25.565  -4.418  12.516  0.00  0.00    +0.241 C 
ATOM     87  O   PHE A  12      25.009  -5.517  12.532  0.00  0.00    -0.273 OA
ATOM     88  N   THR A  13      25.103  -3.383  11.816  0.00  0.00    -0.296 N 
ATOM     89  H   THR A  13      25.632  -2.488  11.828  0.00  0.00    +0.150 HD
BRANCH  88  90
ATOM     90  CA  THR A  13      23.868  -3.471  11.028  0.00  0.00    +0.164 C 
BRANCH  90  91
ATOM     91  CB  THR A  13      23.451  -2.107  10.447  0.00  0.00    +0.136 C 
ATOM     92  CG2 THR A  13      23.175  -1.119  11.570  0.00  0.00    +0.034 C 
BRANCH  91  93
ATOM     93  OG1 THR A  13      24.502  -1.594   9.620  0.00  0.00    -0.382 OA
ATOM     94  HG1 THR A  13      24.677  -2.228   8.880  0.00  0.00    +0.210 HD
ENDBRANCH  91  93
ENDBRANCH  90  91
BRANCH  90  95
ATOM     95  C   THR A  13      23.977  -4.495   9.909  0.00  0.00    +0.229 C 
ATOM     96  O   THR A  13      22.965  -5.059   9.488  0.00  0.00    -0.286 OA
ENDBRANCH  90  95
ENDBRANCH  88  90
ENDBRANCH  85  86
BRANCH  85  97
ATOM     97  CB  PHE A  12      26.540  -3.604  14.700  0.00  0.00    +0.055 C 
BRANCH  97  98
ATOM     98  CG  PHE A  12      25.707  -4.517  15.556  0.00  0.00    -0.020 A 
ATOM     99  CD2 PHE A  12      26.294  -5.580  16.209  0.00  0.00    -0.004 A 
ATOM    100  CE2 PHE A  12      25.539  -6.443  17.004  0.00  0.00    -0.000 A 
ATOM    101  CZ  PHE A  12      24.180  -6.241  17.126  0.00  0.00    -0.000 A 
ATOM    102  CE1 PHE A  12      23.573  -5.192  16.457  0.00  0.00    -0.000 A 
ATOM    103  CD1 PHE A  12      24.337  -4.334  15.670  0.00  0.00    -0.004 A 
ENDBRANCH  97  98
ENDBRANCH  85  97
ENDBRANCH  82  85
ENDBRANCH  80  81
BRANCH  80 104
ATOM    104  CB  LEU A  11      28.181  -2.092   9.536  0.00  0.00    +0.029 C 
BRANCH 104 105
ATOM    105  CG  LEU A  11      28.581  -0.713   8.998  0.00  0.00    +0.002 C 
ATOM    106  CD2 LEU A  11      30.003  -0.724   8.489  0.00  0.00    +0.000 C 
ATOM    107  CD1 LEU A  11      27.619  -0.315   7.891  0.00  0.00    +0.000 C 
ENDBRANCH 104 105
ENDBRANCH  80 104
ENDBRANCH  78  80
ENDBRANCH  75  76
BRANCH  75 108
ATOM    108  CB  ASP A  10      32.016  -5.701   9.269  0.00  0.00    +0.143 C 
BRANCH 108 109
ATOM    109  CG  ASP A  10      31.283  -5.726   7.933  0.00  0.00    +0.367 C 
ATOM    110  OD2 ASP A  10      30.694  -4.698   7.533  0.00  0.00    -0.246 OA
ATOM    111  OD1 ASP A  10      31.302  -6.784   7.275  0.00  0.00    -0.246 OA
ENDBRANCH 108 109
ENDBRANCH  75 108
ENDBRANCH  72  75
ENDBRANCH  70  71
ENDBRANCH  67  70
ENDBRANCH  65  66
ENDBRANCH  63  65
ENDBRANCH   1  61
BRANCH   1 112
ATOM    112  CB  ARG A   7      42.831  -5.128  10.764  0.00  0.00    +0.033 C 
BRANCH 112 113
ATOM    113  CG  ARG A   7      43.274  -5.973   9.574  0.00  0.00    +0.045 C 
BRANCH 113 114
ATOM    114  CD  ARG A   7      44.620  -6.634   9.854  0.00  0.00    +0.174 C 
BRANCH 114 115
ATOM    115  NE  ARG A   7      44.548  -7.582  10.963  0.00  0.00    -0.265 N 
ATOM    116  CZ  ARG A   7      45.606  -8.157  11.527  0.00  0.00    +0.342 C 
ATOM    117  NH2 ARG A   7      45.445  -9.009  12.531  0.00  0.00    -0.292 N 
ATOM    118 HH21 ARG A   7      46.274  -9.457  12.970  0.00  0.00    +0.255 HD
ATOM    119 HH22 ARG A   7      44.490  -9.229  12.879  0.00  0.00    +0.255 HD
ATOM    120  NH1 ARG A   7      46.827  -7.877  11.090  0.00  0.00    -0.292 N 
ATOM    121 HH11 ARG A   7      47.654  -8.327  11.532  0.00  0.00    +0.255 HD
ATOM    122 HH12 ARG A   7      46.958  -7.207  10.305  0.00  0.00    +0.255 HD
ATOM    123  HE  ARG A   7      43.608  -7.823  11.336  0.00  0.00    +0.259 HD
ENDBRANCH 114 115
ENDBRANCH 113 114
ENDBRANCH 112 113
ENDBRANCH   1 112
TORSDOF 50
REMARK  Name = ../refined-set-2016/3ubd/3ubd_pocket.pdb
REMARK  237 active torsions:
REMARK  status: ('A' for Active; 'I' for Inactive)
REMARK    1  A    between atoms: _1  and  _5
REMARK    2  A    between atoms: _5  and  _6
REMARK    3  A    between atoms: _5  and  _8
REMARK    4  A    between atoms: _8  and  _9
REMARK    5  A    between atoms: _9  and  _10
REMARK    6  A    between atoms: _13  and  _15
REMARK    7  A    between atoms: _15  and  _16
REMARK    8  A    between atoms: _15  and  _18
REMARK    9  A    between atoms: _18  and  _19
REMARK   10  A    between atoms: _22  and  _24
REMARK   11  A    between atoms: _24  and  _25
REMARK   12  A    between atoms: _28  and  _30
REMARK   13  A    between atoms: _30  and  _31
REMARK   14  A    between atoms: _30  and  _33
REMARK   15  A    between atoms: _33  and  _34
REMARK   16  A    between atoms: _37  and  _39
REMARK   17  A    between atoms: _39  and  _40
REMARK   18  A    between atoms: _39  and  _42
REMARK   19  A    between atoms: _42  and  _43
REMARK   20  A    between atoms: _43  and  _44
REMARK   21  A    between atoms: _49  and  _51
REMARK   22  A    between atoms: _51  and  _52
REMARK   23  A    between atoms: _54  and  _56
REMARK   24  A    between atoms: _56  and  _57
REMARK   25  A    between atoms: _56  and  _59
REMARK   26  A    between atoms: _59  and  _60
REMARK   27  A    between atoms: _62  and  _64
REMARK   28  A    between atoms: _64  and  _65
REMARK   29  A    between atoms: _64  and  _67
REMARK   30  A    between atoms: _67  and  _68
REMARK   31  A    between atoms: _74  and  _76
REMARK   32  A    between atoms: _76  and  _77
REMARK   33  A    between atoms: _79  and  _81
REMARK   34  A    between atoms: _81  and  _82
REMARK   35  A    between atoms: _81  and  _84
REMARK   36  A    between atoms: _84  and  _85
REMARK   37  A    between atoms: _85  and  _86
REMARK   38  A    between atoms: _86  and  _87
REMARK   39  A    between atoms: _87  and  _88
REMARK   40  A    between atoms: _92  and  _94
REMARK   41  A    between atoms: _94  and  _95
REMARK   42  A    between atoms: _94  and  _97
REMARK   43  A    between atoms: _100  and  _102
REMARK   44  A    between atoms: _102  and  _103
REMARK   45  A    between atoms: _102  and  _105
REMARK   46  A    between atoms: _105  and  _106
REMARK   47  A    between atoms: _112  and  _114
REMARK   48  A    between atoms: _114  and  _115
REMARK   49  A    between atoms: _114  and  _117
REMARK   50  A    between atoms: _117  and  _118
REMARK   51  A    between atoms: _123  and  _124
REMARK   52  A    between atoms: _126  and  _128
REMARK   53  A    between atoms: _128  and  _129
REMARK   54  A    between atoms: _132  and  _134
REMARK   55  A    between atoms: _134  and  _135
REMARK   56  A    between atoms: _134  and  _137
REMARK   57  A    between atoms: _137  and  _138
REMARK   58  A    between atoms: _138  and  _139
REMARK   59  A    between atoms: _141  and  _143
REMARK   60  A    between atoms: _143  and  _144
REMARK   61  A    between atoms: _143  and  _146
REMARK   62  A    between atoms: _146  and  _147
REMARK   63  A    between atoms: _147  and  _148
REMARK   64  A    between atoms: _148  and  _149
REMARK   65  A    between atoms: _149  and  _150
REMARK   66  A    between atoms: _154  and  _156
REMARK   67  A    between atoms: _156  and  _157
REMARK   68  A    between atoms: _156  and  _159
REMARK   69  A    between atoms: _162  and  _164
REMARK   70  A    between atoms: _164  and  _165
REMARK   71  A    between atoms: _164  and  _167
REMARK   72  A    between atoms: _167  and  _168
REMARK   73  A    between atoms: _171  and  _173
REMARK   74  A    between atoms: _173  and  _174
REMARK   75  A    between atoms: _173  and  _176
REMARK   76  A    between atoms: _176  and  _177
REMARK   77  A    between atoms: _177  and  _178
REMARK   78  A    between atoms: _178  and  _179
REMARK   79  A    between atoms: _179  and  _180
REMARK   80  A    between atoms: _184  and  _186
REMARK   81  A    between atoms: _186  and  _187
REMARK   82  A    between atoms: _186  and  _189
REMARK   83  A    between atoms: _189  and  _190
REMARK   84  A    between atoms: _190  and  _191
REMARK   85  A    between atoms: _191  and  _192
REMARK   86  A    between atoms: _192  and  _193
REMARK   87  A    between atoms: _197  and  _199
REMARK   88  A    between atoms: _199  and  _200
REMARK   89  A    between atoms: _203  and  _205
REMARK   90  A    between atoms: _205  and  _206
REMARK   91  A    between atoms: _205  and  _208
REMARK   92  A    between atoms: _208  and  _209
REMARK   93  A    between atoms: _212  and  _214
REMARK   94  A    between atoms: _214  and  _215
REMARK   95  A    between atoms: _214  and  _217
REMARK   96  A    between atoms: _217  and  _218
REMARK   97  A    between atoms: _221  and  _223
REMARK   98  A    between atoms: _223  and  _224
REMARK   99  A    between atoms: _223  and  _226
REMARK  100  A    between atoms: _229  and  _231
REMARK  101  A    between atoms: _231  and  _232
REMARK  102  A    between atoms: _231  and  _234
REMARK  103  A    between atoms: _234  and  _235
REMARK  104  A    between atoms: _235  and  _236
REMARK  105  A    between atoms: _236  and  _237
REMARK  106  A    between atoms: _237  and  _238
REMARK  107  A    between atoms: _242  and  _244
REMARK  108  A    between atoms: _244  and  _245
REMARK  109  A    between atoms: _244  and  _247
REMARK  110  A    between atoms: _247  and  _248
REMARK  111  A    between atoms: _251  and  _253
REMARK  112  A    between atoms: _253  and  _254
REMARK  113  A    between atoms: _253  and  _256
REMARK  114  A    between atoms: _256  and  _257
REMARK  115  A    between atoms: _262  and  _264
REMARK  116  A    between atoms: _264  and  _265
REMARK  117  A    between atoms: _264  and  _267
REMARK  118  A    between atoms: _267  and  _268
REMARK  119  A    between atoms: _271  and  _273
REMARK  120  A    between atoms: _273  and  _274
REMARK  121  A    between atoms: _273  and  _276
REMARK  122  A    between atoms: _276  and  _277
REMARK  123  A    between atoms: _280  and  _282
REMARK  124  A    between atoms: _282  and  _283
REMARK  125  A    between atoms: _282  and  _285
REMARK  126  A    between atoms: _285  and  _286
REMARK  127  A    between atoms: _289  and  _291
REMARK  128  A    between atoms: _291  and  _292
REMARK  129  A    between atoms: _291  and  _294
REMARK  130  A    between atoms: _294  and  _295
REMARK  131  A    between atoms: _298  and  _300
REMARK  132  A    between atoms: _300  and  _301
REMARK  133  A    between atoms: _300  and  _303
REMARK  134  A    between atoms: _303  and  _304
REMARK  135  A    between atoms: _307  and  _309
REMARK  136  A    between atoms: _309  and  _310
REMARK  137  A    between atoms: _309  and  _312
REMARK  138  A    between atoms: _312  and  _313
REMARK  139  A    between atoms: _319  and  _321
REMARK  140  A    between atoms: _321  and  _322
REMARK  141  A    between atoms: _321  and  _324
REMARK  142  A    between atoms: _324  and  _325
REMARK  143  A    between atoms: _328  and  _330
REMARK  144  A    between atoms: _330  and  _331
REMARK  145  A    between atoms: _330  and  _333
REMARK  146  A    between atoms: _333  and  _334
REMARK  147  A    between atoms: _334  and  _335
REMARK  148  A    between atoms: _335  and  _336
REMARK  149  A    between atoms: _345  and  _347
REMARK  150  A    between atoms: _347  and  _348
REMARK  151  A    between atoms: _350  and  _352
REMARK  152  A    between atoms: _352  and  _353
REMARK  153  A    between atoms: _355  and  _357
REMARK  154  A    between atoms: _357  and  _358
REMARK  155  A    between atoms: _357  and  _360
REMARK  156  A    between atoms: _360  and  _361
REMARK  157  A    between atoms: _364  and  _366
REMARK  158  A    between atoms: _366  and  _367
REMARK  159  A    between atoms: _366  and  _369
REMARK  160  A    between atoms: _369  and  _370
REMARK  161  A    between atoms: _373  and  _375
REMARK  162  A    between atoms: _375  and  _376
REMARK  163  A    between atoms: _375  and  _378
REMARK  164  A    between atoms: _378  and  _379
REMARK  165  A    between atoms: _385  and  _387
REMARK  166  A    between atoms: _387  and  _388
REMARK  167  A    between atoms: _387  and  _390
REMARK  168  A    between atoms: _390  and  _391
REMARK  169  A    between atoms: _394  and  _396
REMARK  170  A    between atoms: _396  and  _397
REMARK  171  A    between atoms: _396  and  _399
REMARK  172  A    between atoms: _399  and  _400
REMARK  173  A    between atoms: _400  and  _401
REMARK  174  A    between atoms: _401  and  _402
REMARK  175  A    between atoms: _402  and  _403
REMARK  176  A    between atoms: _408  and  _409
REMARK  177  A    between atoms: _414  and  _416
REMARK  178  A    between atoms: _416  and  _417
REMARK  179  A    between atoms: _416  and  _419
REMARK  180  A    between atoms: _419  and  _420
REMARK  181  A    between atoms: _420  and  _421
REMARK  182  A    between atoms: _424  and  _426
REMARK  183  A    between atoms: _426  and  _427
REMARK  184  A    between atoms: _426  and  _429
REMARK  185  A    between atoms: _429  and  _430
REMARK  186  A    between atoms: _435  and  _437
REMARK  187  A    between atoms: _437  and  _438
REMARK  188  A    between atoms: _437  and  _440
REMARK  189  A    between atoms: _440  and  _441
REMARK  190  A    between atoms: _444  and  _446
REMARK  191  A    between atoms: _446  and  _447
REMARK  192  A    between atoms: _446  and  _449
REMARK  193  A    between atoms: _449  and  _450
REMARK  194  A    between atoms: _453  and  _455
REMARK  195  A    between atoms: _455  and  _456
REMARK  196  A    between atoms: _455  and  _458
REMARK  197  A    between atoms: _458  and  _459
REMARK  198  A    between atoms: _462  and  _464
REMARK  199  A    between atoms: _464  and  _465
REMARK  200  A    between atoms: _464  and  _467
REMARK  201  A    between atoms: _467  and  _468
REMARK  202  A    between atoms: _468  and  _469
REMARK  203  A    between atoms: _469  and  _470
REMARK  204  A    between atoms: _470  and  _471
REMARK  205  A    between atoms: _475  and  _477
REMARK  206  A    between atoms: _477  and  _478
REMARK  207  A    between atoms: _477  and  _480
REMARK  208  A    between atoms: _480  and  _481
REMARK  209  A    between atoms: _484  and  _486
REMARK  210  A    between atoms: _486  and  _487
REMARK  211  A    between atoms: _486  and  _489
REMARK  212  A    between atoms: _489  and  _490
REMARK  213  A    between atoms: _493  and  _495
REMARK  214  A    between atoms: _495  and  _496
REMARK  215  A    between atoms: _495  and  _498
REMARK  216  A    between atoms: _498  and  _499
REMARK  217  A    between atoms: _502  and  _504
REMARK  218  A    between atoms: _504  and  _505
REMARK  219  A    between atoms: _504  and  _507
REMARK  220  A    between atoms: _507  and  _508
REMARK  221  A    between atoms: _514  and  _516
REMARK  222  A    between atoms: _516  and  _517
REMARK  223  A    between atoms: _519  and  _521
REMARK  224  A    between atoms: _521  and  _522
REMARK  225  A    between atoms: _521  and  _524
REMARK  226  A    between atoms: _524  and  _525
REMARK  227  A    between atoms: _528  and  _530
REMARK  228  A    between atoms: _530  and  _531
REMARK  229  A    between atoms: _530  and  _533
REMARK  230  A    between atoms: _533  and  _534
REMARK  231  A    between atoms: _536  and  _538
REMARK  232  A    between atoms: _538  and  _539
REMARK  233  A    between atoms: _538  and  _541
REMARK  234  A    between atoms: _541  and  _542
REMARK  235  A    between atoms: _542  and  _543
REMARK  236  A    between atoms: _543  and  _544
REMARK  237  A    between atoms: _544  and  _545
REMARK                            x       y       z     vdW  Elec       q    Type
REMARK                         _______ _______ _______ _____ _____    ______ ____
ROOT
ATOM      1  CA  ASN A   4      27.575   3.747  16.132  0.00  0.00    +0.158 C 
ENDROOT
BRANCH   1   2
ATOM      2  C   ASN A   4      28.301   2.459  16.502  0.00  0.00    +0.241 C 
ATOM      3  O   ASN A   4      29.313   2.477  17.217  0.00  0.00    -0.273 OA
ATOM      4  N   ILE A   5      27.762   1.332  16.059  0.00  0.00    -0.297 N 
ATOM      5  H   ILE A   5      26.971   1.372  15.385  0.00  0.00    +0.150 HD
BRANCH   4   6
ATOM      6  CA  ILE A   5      28.261   0.043  16.501  0.00  0.00    +0.149 C 
BRANCH   6   7
ATOM      7  C   ILE A   5      28.915  -0.732  15.375  0.00  0.00    +0.241 C 
ATOM      8  N   LEU A   6      30.188  -1.043  15.579  0.00  0.00    -0.297 N 
ATOM      9  H   LEU A   6      30.639  -0.728  16.461  0.00  0.00    +0.150 HD
ATOM     10  O   ILE A   5      28.278  -1.046  14.355  0.00  0.00    -0.273 OA
BRANCH   8  11
ATOM     11  CA  LEU A   6      30.980  -1.801  14.632  0.00  0.00    +0.149 C 
BRANCH  11  12
ATOM     12  C   LEU A   6      31.338  -3.139  15.234  0.00  0.00    +0.241 C 
ATOM     13  O   LEU A   6      31.134  -3.372  16.431  0.00  0.00    -0.273 OA
ATOM     14  N   LEU A   7      31.870  -4.025  14.404  0.00  0.00    -0.298 N 
ATOM     15  H   LEU A   7      31.896  -3.809  13.387  0.00  0.00    +0.150 HD
BRANCH  14  16
ATOM     16  CA  LEU A   7      32.416  -5.283  14.867  0.00  0.00    +0.137 C 
BRANCH  16  17
ATOM     17  C   LEU A   7      33.845  -5.389  14.364  0.00  0.00    +0.227 C 
ATOM     18  O   LEU A   7      34.138  -4.996  13.228  0.00  0.00    -0.286 OA
ENDBRANCH  16  17
BRANCH  16  19
ATOM     19  CB  LEU A   7      31.570  -6.457  14.355  0.00  0.00    +0.028 C 
BRANCH  19  20
ATOM     20  CG  LEU A   7      30.122  -6.498  14.858  0.00  0.00    +0.002 C 
ATOM     21  CD2 LEU A   7      30.054  -6.881  16.330  0.00  0.00    +0.000 C 
ATOM     22  CD1 LEU A   7      29.286  -7.449  14.013  0.00  0.00    +0.000 C 
ENDBRANCH  19  20
ENDBRANCH  16  19
ENDBRANCH  14  16
ENDBRANCH  11  12
BRANCH  11  23
ATOM     23  CB  LEU A   6      32.264  -1.032  14.303  0.00  0.00    +0.029 C 
BRANCH  23  24
ATOM     24  CG  LEU A   6      32.033   0.349  13.701  0.00  0.00    +0.002 C 
ATOM     25  CD2 LEU A   6      33.364   1.025  13.404  0.00  0.00    +0.000 C 
ATOM     26  CD1 LEU A   6      31.168   0.243  12.426  0.00  0.00    +0.000 C 
ENDBRANCH  23  24
ENDBRANCH  11  23
ENDBRANCH   8  11
ENDBRANCH   6   7
BRANCH   6  27
ATOM     27  CB  ILE A   5      27.128  -0.811  17.117  0.00  0.00    +0.027 C 
ATOM     28  CG2 ILE A   5      27.679  -2.111  17.701  0.00  0.00    +0.002 C 
BRANCH  27  29
ATOM     29  CG1 ILE A   5      26.346   0.003  18.147  0.00  0.00    +0.002 C 
ATOM     30  CD1 ILE A   5      25.190  -0.767  18.784  0.00  0.00    +0.000 C 
ENDBRANCH  27  29
ENDBRANCH   6  27
ENDBRANCH   4   6
ENDBRANCH   1   2
BRANCH   1  32
ATOM     31  C   GLU A   3      26.526   3.464  13.952  0.00  0.00    +0.241 C 
ATOM     32  N   ASN A   4      26.405   3.510  15.277  0.00  0.00    -0.297 N 
ATOM     33  H   ASN A   4      25.470   3.376  15.712  0.00  0.00    +0.150 HD
ATOM     34  O   GLU A   3      27.605   3.641  13.382  0.00  0.00    -0.273 OA
BRANCH  31  35
ATOM     35  CA  GLU A   3      25.261   3.146  13.143  0.00  0.00    +0.149 C 
BRANCH  35  38
ATOM     36  C   PRO A   2      24.374   1.439  14.614  0.00  0.00    +0.241 C 
ATOM     37  O   PRO A   2      25.367   0.734  14.489  0.00  0.00    -0.273 OA
ATOM     38  N   GLU A   3      24.210   2.611  13.993  0.00  0.00    -0.297 N 
ATOM     39  H   GLU A   3      23.325   3.143  14.119  0.00  0.00    +0.150 HD
BRANCH  36  46
ATOM     40  C   LYS A   1      23.069   2.919  16.913  0.00  0.00    +0.241 C 
ATOM     41  O   LYS A   1      24.288   2.921  17.070  0.00  0.00    -0.273 OA
ATOM     42  N   PRO A   2      22.455   2.011  16.137  0.00  0.00    -0.272 N 
ATOM     43  CD  PRO A   2      21.009   1.782  15.946  0.00  0.00    +0.094 C 
ATOM     44  CG  PRO A   2      20.965   0.338  15.536  0.00  0.00    +0.024 C 
ATOM     45  CB  PRO A   2      22.223   0.139  14.750  0.00  0.00    +0.031 C 
ATOM     46  CA  PRO A   2      23.260   0.943  15.537  0.00  0.00    +0.152 C 
BRANCH  40  47
ATOM     47  CA  LYS A   1      22.197   3.954  17.615  0.00  0.00    +0.145 C 
BRANCH  47  48
ATOM     48  N   LYS A   1      22.986   4.720  18.586  0.00  0.00    -0.238 NA
ATOM     49  H   LYS A   1      24.006   4.848  18.428  0.00  0.00    +0.142 HD
ENDBRANCH  47  48
BRANCH  47  50
ATOM     50  CB  LYS A   1      21.548   4.904  16.607  0.00  0.00    +0.026 C 
BRANCH  50  51
ATOM     51  CG  LYS A   1      22.531   5.842  15.917  0.00  0.00    -0.000 C 
BRANCH  51  52
ATOM     52  CD  LYS A   1      21.779   6.868  15.073  0.00  0.00    -0.024 C 
BRANCH  52  53
ATOM     53  CE  LYS A   1      22.728   7.844  14.400  0.00  0.00    -0.086 C 
BRANCH  53  54
ATOM     54  NZ  LYS A   1      23.205   8.880  15.354  0.00  0.00    +0.380 N 
ATOM     55  HZ1 LYS A   1      23.706   8.420  16.141  0.00  0.00    -0.089 HD
ATOM     56  HZ2 LYS A   1      22.390   9.411  15.723  0.00  0.00    -0.089 HD
ATOM     57  HZ3 LYS A   1      23.851   9.531  14.863  0.00  0.00    -0.089 HD
ENDBRANCH  53  54
ENDBRANCH  52  53
ENDBRANCH  51  52
ENDBRANCH  50  51
ENDBRANCH  47  50
ENDBRANCH  40  47
ENDBRANCH  36  46
ENDBRANCH  35  38
BRANCH  35  58
ATOM     58  CB  GLU A   3      24.761   4.370  12.370  0.00  0.00    +0.041 C 
BRANCH  58  59
ATOM     59  CG  GLU A   3      23.797   4.038  11.230  0.00  0.00    +0.116 C 
BRANCH  59  60
ATOM     60  CD  GLU A   3      22.499   3.382  11.694  0.00  0.00    +0.365 C 
ATOM     61  OE2 GLU A   3      22.031   3.664  12.829  0.00  0.00    -0.246 OA
ATOM     62  OE1 GLU A   3      21.938   2.587  10.900  0.00  0.00    -0.246 OA
ENDBRANCH  59  60
ENDBRANCH  58  59
ENDBRANCH  35  58
ENDBRANCH  31  35
ENDBRANCH   1  32
BRANCH   1  63
ATOM     63  CB  ASN A   4      27.188   4.460  17.434  0.00  0.00    +0.114 C 
BRANCH  63  64
ATOM     64  CG  ASN A   4      26.621   5.840  17.205  0.00  0.00    +0.222 C 
ATOM     65  OD1 ASN A   4      25.502   6.140  17.622  0.00  0.00    -0.275 OA
ATOM     66  ND2 ASN A   4      27.397   6.700  16.543  0.00  0.00    -0.329 N 
ATOM     67 HD21 ASN A   4      27.063   7.668  16.361  0.00  0.00    +0.145 HD
ATOM     68 HD22 ASN A   4      28.336   6.402  16.209  0.00  0.00    +0.145 HD
ENDBRANCH  63  64
ENDBRANCH   1  63
TORSDOF 29
REMARK  Name = ../refined-set-2016/3ubd/3ubd_pocket.pdb
REMARK  237 active torsions:
REMARK  status: ('A' for Active; 'I' for Inactive)
REMARK    1  A    between atoms: _1  and  _5
REMARK    2  A    between atoms: _5  and  _6
REMARK    3  A    between atoms: _5  and  _8
REMARK    4  A    between atoms: _8  and  _9
REMARK    5  A    between atoms: _9  and  _10
REMARK    6  A    between atoms: _13  and  _15
REMARK    7  A    between atoms: _15  and  _16
REMARK    8  A    between atoms: _15  and  _18
REMARK    9  A    between atoms: _18  and  _19
REMARK   10  A    between atoms: _22  and  _24
REMARK   11  A    between atoms: _24  and  _25
REMARK   12  A    between atoms: _28  and  _30
REMARK   13  A    between atoms: _30  and  _31
REMARK   14  A    between atoms: _30  and  _33
REMARK   15  A    between atoms: _33  and  _34
REMARK   16  A    between atoms: _37  and  _39
REMARK   17  A    between atoms: _39  and  _40
REMARK   18  A    between atoms: _39  and  _42
REMARK   19  A    between atoms: _42  and  _43
REMARK   20  A    between atoms: _43  and  _44
REMARK   21  A    between atoms: _49  and  _51
REMARK   22  A    between atoms: _51  and  _52
REMARK   23  A    between atoms: _54  and  _56
REMARK   24  A    between atoms: _56  and  _57
REMARK   25  A    between atoms: _56  and  _59
REMARK   26  A    between atoms: _59  and  _60
REMARK   27  A    between atoms: _62  and  _64
REMARK   28  A    between atoms: _64  and  _65
REMARK   29  A    between atoms: _64  and  _67
REMARK   30  A    between atoms: _67  and  _68
REMARK   31  A    between atoms: _74  and  _76
REMARK   32  A    between atoms: _76  and  _77
REMARK   33  A    between atoms: _79  and  _81
REMARK   34  A    between atoms: _81  and  _82
REMARK   35  A    between atoms: _81  and  _84
REMARK   36  A    between atoms: _84  and  _85
REMARK   37  A    between atoms: _85  and  _86
REMARK   38  A    between atoms: _86  and  _87
REMARK   39  A    between atoms: _87  and  _88
REMARK   40  A    between atoms: _92  and  _94
REMARK   41  A    between atoms: _94  and  _95
REMARK   42  A    between atoms: _94  and  _97
REMARK   43  A    between atoms: _100  and  _102
REMARK   44  A    between atoms: _102  and  _103
REMARK   45  A    between atoms: _102  and  _105
REMARK   46  A    between atoms: _105  and  _106
REMARK   47  A    between atoms: _112  and  _114
REMARK   48  A    between atoms: _114  and  _115
REMARK   49  A    between atoms: _114  and  _117
REMARK   50  A    between atoms: _117  and  _118
REMARK   51  A    between atoms: _123  and  _124
REMARK   52  A    between atoms: _126  and  _128
REMARK   53  A    between atoms: _128  and  _129
REMARK   54  A    between atoms: _132  and  _134
REMARK   55  A    between atoms: _134  and  _135
REMARK   56  A    between atoms: _134  and  _137
REMARK   57  A    between atoms: _137  and  _138
REMARK   58  A    between atoms: _138  and  _139
REMARK   59  A    between atoms: _141  and  _143
REMARK   60  A    between atoms: _143  and  _144
REMARK   61  A    between atoms: _143  and  _146
REMARK   62  A    between atoms: _146  and  _147
REMARK   63  A    between atoms: _147  and  _148
REMARK   64  A    between atoms: _148  and  _149
REMARK   65  A    between atoms: _149  and  _150
REMARK   66  A    between atoms: _154  and  _156
REMARK   67  A    between atoms: _156  and  _157
REMARK   68  A    between atoms: _156  and  _159
REMARK   69  A    between atoms: _162  and  _164
REMARK   70  A    between atoms: _164  and  _165
REMARK   71  A    between atoms: _164  and  _167
REMARK   72  A    between atoms: _167  and  _168
REMARK   73  A    between atoms: _171  and  _173
REMARK   74  A    between atoms: _173  and  _174
REMARK   75  A    between atoms: _173  and  _176
REMARK   76  A    between atoms: _176  and  _177
REMARK   77  A    between atoms: _177  and  _178
REMARK   78  A    between atoms: _178  and  _179
REMARK   79  A    between atoms: _179  and  _180
REMARK   80  A    between atoms: _184  and  _186
REMARK   81  A    between atoms: _186  and  _187
REMARK   82  A    between atoms: _186  and  _189
REMARK   83  A    between atoms: _189  and  _190
REMARK   84  A    between atoms: _190  and  _191
REMARK   85  A    between atoms: _191  and  _192
REMARK   86  A    between atoms: _192  and  _193
REMARK   87  A    between atoms: _197  and  _199
REMARK   88  A    between atoms: _199  and  _200
REMARK   89  A    between atoms: _203  and  _205
REMARK   90  A    between atoms: _205  and  _206
REMARK   91  A    between atoms: _205  and  _208
REMARK   92  A    between atoms: _208  and  _209
REMARK   93  A    between atoms: _212  and  _214
REMARK   94  A    between atoms: _214  and  _215
REMARK   95  A    between atoms: _214  and  _217
REMARK   96  A    between atoms: _217  and  _218
REMARK   97  A    between atoms: _221  and  _223
REMARK   98  A    between atoms: _223  and  _224
REMARK   99  A    between atoms: _223  and  _226
REMARK  100  A    between atoms: _229  and  _231
REMARK  101  A    between atoms: _231  and  _232
REMARK  102  A    between atoms: _231  and  _234
REMARK  103  A    between atoms: _234  and  _235
REMARK  104  A    between atoms: _235  and  _236
REMARK  105  A    between atoms: _236  and  _237
REMARK  106  A    between atoms: _237  and  _238
REMARK  107  A    between atoms: _242  and  _244
REMARK  108  A    between atoms: _244  and  _245
REMARK  109  A    between atoms: _244  and  _247
REMARK  110  A    between atoms: _247  and  _248
REMARK  111  A    between atoms: _251  and  _253
REMARK  112  A    between atoms: _253  and  _254
REMARK  113  A    between atoms: _253  and  _256
REMARK  114  A    between atoms: _256  and  _257
REMARK  115  A    between atoms: _262  and  _264
REMARK  116  A    between atoms: _264  and  _265
REMARK  117  A    between atoms: _264  and  _267
REMARK  118  A    between atoms: _267  and  _268
REMARK  119  A    between atoms: _271  and  _273
REMARK  120  A    between atoms: _273  and  _274
REMARK  121  A    between atoms: _273  and  _276
REMARK  122  A    between atoms: _276  and  _277
REMARK  123  A    between atoms: _280  and  _282
REMARK  124  A    between atoms: _282  and  _283
REMARK  125  A    between atoms: _282  and  _285
REMARK  126  A    between atoms: _285  and  _286
REMARK  127  A    between atoms: _289  and  _291
REMARK  128  A    between atoms: _291  and  _292
REMARK  129  A    between atoms: _291  and  _294
REMARK  130  A    between atoms: _294  and  _295
REMARK  131  A    between atoms: _298  and  _300
REMARK  132  A    between atoms: _300  and  _301
REMARK  133  A    between atoms: _300  and  _303
REMARK  134  A    between atoms: _303  and  _304
REMARK  135  A    between atoms: _307  and  _309
REMARK  136  A    between atoms: _309  and  _310
REMARK  137  A    between atoms: _309  and  _312
REMARK  138  A    between atoms: _312  and  _313
REMARK  139  A    between atoms: _319  and  _321
REMARK  140  A    between atoms: _321  and  _322
REMARK  141  A    between atoms: _321  and  _324
REMARK  142  A    between atoms: _324  and  _325
REMARK  143  A    between atoms: _328  and  _330
REMARK  144  A    between atoms: _330  and  _331
REMARK  145  A    between atoms: _330  and  _333
REMARK  146  A    between atoms: _333  and  _334
REMARK  147  A    between atoms: _334  and  _335
REMARK  148  A    between atoms: _335  and  _336
REMARK  149  A    between atoms: _345  and  _347
REMARK  150  A    between atoms: _347  and  _348
REMARK  151  A    between atoms: _350  and  _352
REMARK  152  A    between atoms: _352  and  _353
REMARK  153  A    between atoms: _355  and  _357
REMARK  154  A    between atoms: _357  and  _358
REMARK  155  A    between atoms: _357  and  _360
REMARK  156  A    between atoms: _360  and  _361
REMARK  157  A    between atoms: _364  and  _366
REMARK  158  A    between atoms: _366  and  _367
REMARK  159  A    between atoms: _366  and  _369
REMARK  160  A    between atoms: _369  and  _370
REMARK  161  A    between atoms: _373  and  _375
REMARK  162  A    between atoms: _375  and  _376
REMARK  163  A    between atoms: _375  and  _378
REMARK  164  A    between atoms: _378  and  _379
REMARK  165  A    between atoms: _385  and  _387
REMARK  166  A    between atoms: _387  and  _388
REMARK  167  A    between atoms: _387  and  _390
REMARK  168  A    between atoms: _390  and  _391
REMARK  169  A    between atoms: _394  and  _396
REMARK  170  A    between atoms: _396  and  _397
REMARK  171  A    between atoms: _396  and  _399
REMARK  172  A    between atoms: _399  and  _400
REMARK  173  A    between atoms: _400  and  _401
REMARK  174  A    between atoms: _401  and  _402
REMARK  175  A    between atoms: _402  and  _403
REMARK  176  A    between atoms: _408  and  _409
REMARK  177  A    between atoms: _414  and  _416
REMARK  178  A    between atoms: _416  and  _417
REMARK  179  A    between atoms: _416  and  _419
REMARK  180  A    between atoms: _419  and  _420
REMARK  181  A    between atoms: _420  and  _421
REMARK  182  A    between atoms: _424  and  _426
REMARK  183  A    between atoms: _426  and  _427
REMARK  184  A    between atoms: _426  and  _429
REMARK  185  A    between atoms: _429  and  _430
REMARK  186  A    between atoms: _435  and  _437
REMARK  187  A    between atoms: _437  and  _438
REMARK  188  A    between atoms: _437  and  _440
REMARK  189  A    between atoms: _440  and  _441
REMARK  190  A    between atoms: _444  and  _446
REMARK  191  A    between atoms: _446  and  _447
REMARK  192  A    between atoms: _446  and  _449
REMARK  193  A    between atoms: _449  and  _450
REMARK  194  A    between atoms: _453  and  _455
REMARK  195  A    between atoms: _455  and  _456
REMARK  196  A    between atoms: _455  and  _458
REMARK  197  A    between atoms: _458  and  _459
REMARK  198  A    between atoms: _462  and  _464
REMARK  199  A    between atoms: _464  and  _465
REMARK  200  A    between atoms: _464  and  _467
REMARK  201  A    between atoms: _467  and  _468
REMARK  202  A    between atoms: _468  and  _469
REMARK  203  A    between atoms: _469  and  _470
REMARK  204  A    between atoms: _470  and  _471
REMARK  205  A    between atoms: _475  and  _477
REMARK  206  A    between atoms: _477  and  _478
REMARK  207  A    between atoms: _477  and  _480
REMARK  208  A    between atoms: _480  and  _481
REMARK  209  A    between atoms: _484  and  _486
REMARK  210  A    between atoms: _486  and  _487
REMARK  211  A    between atoms: _486  and  _489
REMARK  212  A    between atoms: _489  and  _490
REMARK  213  A    between atoms: _493  and  _495
REMARK  214  A    between atoms: _495  and  _496
REMARK  215  A    between atoms: _495  and  _498
REMARK  216  A    between atoms: _498  and  _499
REMARK  217  A    between atoms: _502  and  _504
REMARK  218  A    between atoms: _504  and  _505
REMARK  219  A    between atoms: _504  and  _507
REMARK  220  A    between atoms: _507  and  _508
REMARK  221  A    between atoms: _514  and  _516
REMARK  222  A    between atoms: _516  and  _517
REMARK  223  A    between atoms: _519  and  _521
REMARK  224  A    between atoms: _521  and  _522
REMARK  225  A    between atoms: _521  and  _524
REMARK  226  A    between atoms: _524  and  _525
REMARK  227  A    between atoms: _528  and  _530
REMARK  228  A    between atoms: _530  and  _531
REMARK  229  A    between atoms: _530  and  _533
REMARK  230  A    between atoms: _533  and  _534
REMARK  231  A    between atoms: _536  and  _538
REMARK  232  A    between atoms: _538  and  _539
REMARK  233  A    between atoms: _538  and  _541
REMARK  234  A    between atoms: _541  and  _542
REMARK  235  A    between atoms: _542  and  _543
REMARK  236  A    between atoms: _543  and  _544
REMARK  237  A    between atoms: _544  and  _545
REMARK                            x       y       z     vdW  Elec       q    Type
REMARK                         _______ _______ _______ _____ _____    ______ ____
ROOT
ATOM      1  CA  PHE A   5      32.125   9.825  17.821  0.00  0.00    +0.153 C 
ENDROOT
BRANCH   1   2
ATOM      2  C   PHE A   5      30.708   9.652  17.293  0.00  0.00    +0.241 C 
ATOM      3  N   GLY A   6      30.013  10.767  17.108  0.00  0.00    -0.295 N 
ATOM      4  H   GLY A   6      30.450  11.686  17.322  0.00  0.00    +0.150 HD
ATOM      5  O   PHE A   5      30.261   8.532  17.051  0.00  0.00    -0.273 OA
BRANCH   3   6
ATOM      6  CA  GLY A   6      28.647  10.720  16.610  0.00  0.00    +0.176 C 
BRANCH   6   7
ATOM      7  C   GLY A   6      28.602  10.716  15.101  0.00  0.00    +0.243 C 
ATOM      8  N   LEU A   7      27.547  10.123  14.552  0.00  0.00    -0.297 N 
ATOM      9  H   LEU A   7      26.859   9.642  15.165  0.00  0.00    +0.150 HD
ATOM     10  O   GLY A   6      29.505  11.224  14.443  0.00  0.00    -0.273 OA
BRANCH   8  11
ATOM     11  CA  LEU A   7      27.333  10.132  13.112  0.00  0.00    +0.149 C 
BRANCH  11  12
ATOM     12  C   LEU A   7      25.874  10.460  12.866  0.00  0.00    +0.241 C 
ATOM     13  O   LEU A   7      24.991   9.871  13.490  0.00  0.00    -0.273 OA
ATOM     14  N   SER A   8      25.621  11.409  11.975  0.00  0.00    -0.295 N 
ATOM     15  H   SER A   8      26.410  11.879  11.487  0.00  0.00    +0.150 HD
BRANCH  14  16
ATOM     16  CA  SER A   8      24.247  11.802  11.671  0.00  0.00    +0.178 C 
BRANCH  16  17
ATOM     17  C   SER A   8      24.090  12.180  10.207  0.00  0.00    +0.243 C 
ATOM     18  N   LYS A   9      22.862  12.073   9.715  0.00  0.00    -0.298 N 
ATOM     19  H   LYS A   9      22.097  11.743  10.338  0.00  0.00    +0.150 HD
ATOM     20  O   SER A   8      25.058  12.541   9.536  0.00  0.00    -0.273 OA
BRANCH  18  21
ATOM     21  CA  LYS A   9      22.551  12.402   8.334  0.00  0.00    +0.137 C 
BRANCH  21  22
ATOM     22  C   LYS A   9      21.866  13.760   8.285  0.00  0.00    +0.227 C 
ATOM     23  O   LYS A   9      20.769  13.931   8.819  0.00  0.00    -0.286 OA
ENDBRANCH  21  22
BRANCH  21  24
ATOM     24  CB  LYS A   9      21.641  11.332   7.729  0.00  0.00    +0.028 C 
BRANCH  24  25
ATOM     25  CG  LYS A   9      22.151   9.910   7.909  0.00  0.00    -0.000 C 
BRANCH  25  26
ATOM     26  CD  LYS A   9      23.364   9.632   7.035  0.00  0.00    -0.024 C 
BRANCH  26  27
ATOM     27  CE  LYS A   9      22.988   9.626   5.558  0.00  0.00    -0.086 C 
BRANCH  27  28
ATOM     28  NZ  LYS A   9      24.135   9.248   4.683  0.00  0.00    +0.380 N 
ATOM     29  HZ1 LYS A   9      24.463   8.294   4.936  0.00  0.00    -0.089 HD
ATOM     30  HZ2 LYS A   9      24.910   9.929   4.816  0.00  0.00    -0.089 HD
ATOM     31  HZ3 LYS A   9      23.829   9.258   3.689  0.00  0.00    -0.089 HD
ENDBRANCH  27  28
ENDBRANCH  26  27
ENDBRANCH  25  26
ENDBRANCH  24  25
ENDBRANCH  21  24
ENDBRANCH  18  21
ENDBRANCH  16  17
BRANCH  16  32
ATOM     32  CB  SER A   8      23.776  12.940  12.589  0.00  0.00    +0.166 C 
BRANCH  32  33
ATOM     33  OG  SER A   8      24.630  14.073  12.516  0.00  0.00    -0.380 OA
ATOM     34  H   SER A   8      25.545  13.813  12.790  0.00  0.00    +0.211 HD
ENDBRANCH  32  33
ENDBRANCH  16  32
ENDBRANCH  14  16
ENDBRANCH  11  12
BRANCH  11  35
ATOM     35  CB  LEU A   7      27.653   8.771  12.503  0.00  0.00    +0.029 C 
BRANCH  35  36
ATOM     36  CG  LEU A   7      29.110   8.318  12.497  0.00  0.00    +0.002 C 
ATOM     37  CD2 LEU A   7      29.412   7.482  13.744  0.00  0.00    +0.000 C 
ATOM     38  CD1 LEU A   7      29.394   7.521  11.224  0.00  0.00    +0.000 C 
ENDBRANCH  35  36
ENDBRANCH  11  35
ENDBRANCH   8  11
ENDBRANCH   6   7
ENDBRANCH   3   6
ENDBRANCH   1   2
BRANCH   1  41
ATOM     39  C   ASP A   4      32.929   8.678  19.823  0.00  0.00    +0.241 C 
ATOM     40  O   ASP A   4      32.959   9.712  20.504  0.00  0.00    -0.273 OA
ATOM     41  N   PHE A   5      32.551   8.644  18.548  0.00  0.00    -0.297 N 
ATOM     42  H   PHE A   5      32.561   7.731  18.051  0.00  0.00    +0.150 HD
BRANCH  39  43
ATOM     43  CA  ASP A   4      33.332   7.339  20.432  0.00  0.00    +0.160 C 
BRANCH  43  46
ATOM     44  C   THR A   3      32.358   5.526  19.168  0.00  0.00    +0.243 C 
ATOM     45  O   THR A   3      31.285   5.683  19.749  0.00  0.00    -0.273 OA
ATOM     46  N   ASP A   4      33.431   6.254  19.460  0.00  0.00    -0.296 N 
ATOM     47  H   ASP A   4      34.340   6.051  18.997  0.00  0.00    +0.150 HD
BRANCH  44  48
ATOM     48  CA  THR A   3      32.503   4.493  18.060  0.00  0.00    +0.176 C 
BRANCH  48  51
ATOM     49  C   LEU A   2      32.326   2.476  19.401  0.00  0.00    +0.241 C 
ATOM     50  O   LEU A   2      33.414   2.680  19.932  0.00  0.00    -0.273 OA
ATOM     51  N   THR A   3      31.825   3.250  18.439  0.00  0.00    -0.295 N 
ATOM     52  H   THR A   3      30.948   2.971  17.954  0.00  0.00    +0.150 HD
BRANCH  49  53
ATOM     53  CA  LEU A   2      31.495   1.277  19.832  0.00  0.00    +0.149 C 
BRANCH  53  55
ATOM     54  C   LYS A   1      32.602  -0.570  18.709  0.00  0.00    +0.238 C 
ATOM     55  N   LEU A   2      32.354   0.111  19.813  0.00  0.00    -0.297 N 
ATOM     56  H   LEU A   2      32.792  -0.202  20.703  0.00  0.00    +0.150 HD
ATOM     57  O   LYS A   1      32.039  -0.330  17.639  0.00  0.00    -0.274 OA
BRANCH  54  58
ATOM     58  CA  LYS A   1      33.609  -1.690  18.826  0.00  0.00    +0.145 C 
BRANCH  58  59
ATOM     59  N   LYS A   1      32.845  -2.933  18.725  0.00  0.00    -0.238 NA
ATOM     60  H   LYS A   1      32.191  -3.063  17.927  0.00  0.00    +0.142 HD
ENDBRANCH  58  59
BRANCH  58  61
ATOM     61  CB  LYS A   1      34.647  -1.563  17.704  0.00  0.00    +0.026 C 
BRANCH  61  62
ATOM     62  CG  LYS A   1      35.791  -2.557  17.734  0.00  0.00    -0.000 C 
BRANCH  62  63
ATOM     63  CD  LYS A   1      36.728  -2.366  18.941  0.00  0.00    -0.024 C 
BRANCH  63  64
ATOM     64  CE  LYS A   1      38.010  -3.156  18.722  0.00  0.00    -0.086 C 
BRANCH  64  65
ATOM     65  NZ  LYS A   1      38.947  -3.062  19.859  0.00  0.00    +0.380 N 
ATOM     66  HZ1 LYS A   1      38.489  -3.433  20.716  0.00  0.00    -0.089 HD
ATOM     67  HZ2 LYS A   1      39.210  -2.067  20.009  0.00  0.00    -0.089 HD
ATOM     68  HZ3 LYS A   1      39.800  -3.620  19.651  0.00  0.00    -0.089 HD
ENDBRANCH  64  65
ENDBRANCH  63  64
ENDBRANCH  62  63
ENDBRANCH  61  62
ENDBRANCH  58  61
ENDBRANCH  54  58
ENDBRANCH  53  55
BRANCH  53  69
ATOM     69  CB  LEU A   2      30.965   1.505  21.254  0.00  0.00    +0.029 C 
BRANCH  69  70
ATOM     70  CG  LEU A   2      30.122   2.753  21.523  0.00  0.00    +0.002 C 
ATOM     71  CD2 LEU A   2      29.755   2.879  23.027  0.00  0.00    +0.000 C 
ATOM     72  CD1 LEU A   2      28.852   2.773  20.668  0.00  0.00    +0.000 C 
ENDBRANCH  69  70
ENDBRANCH  53  69
ENDBRANCH  49  53
ENDBRANCH  48  51
BRANCH  48  73
ATOM     73  CB  THR A   3      31.930   5.097  16.745  0.00  0.00    +0.137 C 
ATOM     74  CG2 THR A   3      32.024   4.079  15.611  0.00  0.00    +0.034 C 
BRANCH  73  75
ATOM     75  OG1 THR A   3      30.562   5.503  16.938  0.00  0.00    -0.382 OA
ATOM     76  HG1 THR A   3      30.519   6.185  17.654  0.00  0.00    +0.210 HD
ENDBRANCH  73  75
ENDBRANCH  48  73
ENDBRANCH  44  48
ENDBRANCH  43  46
BRANCH  43  77
ATOM     77  CB  ASP A   4      34.618   7.470  21.272  0.00  0.00    +0.143 C 
BRANCH  77  78
ATOM     78  CG  ASP A   4      35.730   8.208  20.555  0.00  0.00    +0.367 C 
ATOM     79  OD2 ASP A   4      36.706   8.581  21.251  0.00  0.00    -0.246 OA
ATOM     80  OD1 ASP A   4      35.647   8.394  19.320  0.00  0.00    -0.246 OA
ENDBRANCH  77  78
ENDBRANCH  43  77
ENDBRANCH  39  43
ENDBRANCH   1  41
BRANCH   1  81
ATOM     81  CB  PHE A   5      33.093  10.102  16.668  0.00  0.00    +0.055 C 
BRANCH  81  82
ATOM     82  CG  PHE A   5      33.327   8.918  15.756  0.00  0.00    -0.020 A 
ATOM     83  CD2 PHE A   5      34.297   7.971  16.062  0.00  0.00    -0.004 A 
ATOM     84  CE2 PHE A   5      34.540   6.888  15.222  0.00  0.00    -0.000 A 
ATOM     85  CZ  PHE A   5      33.815   6.745  14.063  0.00  0.00    -0.000 A 
ATOM     86  CE1 PHE A   5      32.836   7.688  13.736  0.00  0.00    -0.000 A 
ATOM     87  CD1 PHE A   5      32.594   8.763  14.580  0.00  0.00    -0.004 A 
ENDBRANCH  81  82
ENDBRANCH   1  81
TORSDOF 40
REMARK  Name = ../refined-set-2016/3ubd/3ubd_pocket.pdb
REMARK  237 active torsions:
REMARK  status: ('A' for Active; 'I' for Inactive)
REMARK    1  A    between atoms: _1  and  _5
REMARK    2  A    between atoms: _5  and  _6
REMARK    3  A    between atoms: _5  and  _8
REMARK    4  A    between atoms: _8  and  _9
REMARK    5  A    between atoms: _9  and  _10
REMARK    6  A    between atoms: _13  and  _15
REMARK    7  A    between atoms: _15  and  _16
REMARK    8  A    between atoms: _15  and  _18
REMARK    9  A    between atoms: _18  and  _19
REMARK   10  A    between atoms: _22  and  _24
REMARK   11  A    between atoms: _24  and  _25
REMARK   12  A    between atoms: _28  and  _30
REMARK   13  A    between atoms: _30  and  _31
REMARK   14  A    between atoms: _30  and  _33
REMARK   15  A    between atoms: _33  and  _34
REMARK   16  A    between atoms: _37  and  _39
REMARK   17  A    between atoms: _39  and  _40
REMARK   18  A    between atoms: _39  and  _42
REMARK   19  A    between atoms: _42  and  _43
REMARK   20  A    between atoms: _43  and  _44
REMARK   21  A    between atoms: _49  and  _51
REMARK   22  A    between atoms: _51  and  _52
REMARK   23  A    between atoms: _54  and  _56
REMARK   24  A    between atoms: _56  and  _57
REMARK   25  A    between atoms: _56  and  _59
REMARK   26  A    between atoms: _59  and  _60
REMARK   27  A    between atoms: _62  and  _64
REMARK   28  A    between atoms: _64  and  _65
REMARK   29  A    between atoms: _64  and  _67
REMARK   30  A    between atoms: _67  and  _68
REMARK   31  A    between atoms: _74  and  _76
REMARK   32  A    between atoms: _76  and  _77
REMARK   33  A    between atoms: _79  and  _81
REMARK   34  A    between atoms: _81  and  _82
REMARK   35  A    between atoms: _81  and  _84
REMARK   36  A    between atoms: _84  and  _85
REMARK   37  A    between atoms: _85  and  _86
REMARK   38  A    between atoms: _86  and  _87
REMARK   39  A    between atoms: _87  and  _88
REMARK   40  A    between atoms: _92  and  _94
REMARK   41  A    between atoms: _94  and  _95
REMARK   42  A    between atoms: _94  and  _97
REMARK   43  A    between atoms: _100  and  _102
REMARK   44  A    between atoms: _102  and  _103
REMARK   45  A    between atoms: _102  and  _105
REMARK   46  A    between atoms: _105  and  _106
REMARK   47  A    between atoms: _112  and  _114
REMARK   48  A    between atoms: _114  and  _115
REMARK   49  A    between atoms: _114  and  _117
REMARK   50  A    between atoms: _117  and  _118
REMARK   51  A    between atoms: _123  and  _124
REMARK   52  A    between atoms: _126  and  _128
REMARK   53  A    between atoms: _128  and  _129
REMARK   54  A    between atoms: _132  and  _134
REMARK   55  A    between atoms: _134  and  _135
REMARK   56  A    between atoms: _134  and  _137
REMARK   57  A    between atoms: _137  and  _138
REMARK   58  A    between atoms: _138  and  _139
REMARK   59  A    between atoms: _141  and  _143
REMARK   60  A    between atoms: _143  and  _144
REMARK   61  A    between atoms: _143  and  _146
REMARK   62  A    between atoms: _146  and  _147
REMARK   63  A    between atoms: _147  and  _148
REMARK   64  A    between atoms: _148  and  _149
REMARK   65  A    between atoms: _149  and  _150
REMARK   66  A    between atoms: _154  and  _156
REMARK   67  A    between atoms: _156  and  _157
REMARK   68  A    between atoms: _156  and  _159
REMARK   69  A    between atoms: _162  and  _164
REMARK   70  A    between atoms: _164  and  _165
REMARK   71  A    between atoms: _164  and  _167
REMARK   72  A    between atoms: _167  and  _168
REMARK   73  A    between atoms: _171  and  _173
REMARK   74  A    between atoms: _173  and  _174
REMARK   75  A    between atoms: _173  and  _176
REMARK   76  A    between atoms: _176  and  _177
REMARK   77  A    between atoms: _177  and  _178
REMARK   78  A    between atoms: _178  and  _179
REMARK   79  A    between atoms: _179  and  _180
REMARK   80  A    between atoms: _184  and  _186
REMARK   81  A    between atoms: _186  and  _187
REMARK   82  A    between atoms: _186  and  _189
REMARK   83  A    between atoms: _189  and  _190
REMARK   84  A    between atoms: _190  and  _191
REMARK   85  A    between atoms: _191  and  _192
REMARK   86  A    between atoms: _192  and  _193
REMARK   87  A    between atoms: _197  and  _199
REMARK   88  A    between atoms: _199  and  _200
REMARK   89  A    between atoms: _203  and  _205
REMARK   90  A    between atoms: _205  and  _206
REMARK   91  A    between atoms: _205  and  _208
REMARK   92  A    between atoms: _208  and  _209
REMARK   93  A    between atoms: _212  and  _214
REMARK   94  A    between atoms: _214  and  _215
REMARK   95  A    between atoms: _214  and  _217
REMARK   96  A    between atoms: _217  and  _218
REMARK   97  A    between atoms: _221  and  _223
REMARK   98  A    between atoms: _223  and  _224
REMARK   99  A    between atoms: _223  and  _226
REMARK  100  A    between atoms: _229  and  _231
REMARK  101  A    between atoms: _231  and  _232
REMARK  102  A    between atoms: _231  and  _234
REMARK  103  A    between atoms: _234  and  _235
REMARK  104  A    between atoms: _235  and  _236
REMARK  105  A    between atoms: _236  and  _237
REMARK  106  A    between atoms: _237  and  _238
REMARK  107  A    between atoms: _242  and  _244
REMARK  108  A    between atoms: _244  and  _245
REMARK  109  A    between atoms: _244  and  _247
REMARK  110  A    between atoms: _247  and  _248
REMARK  111  A    between atoms: _251  and  _253
REMARK  112  A    between atoms: _253  and  _254
REMARK  113  A    between atoms: _253  and  _256
REMARK  114  A    between atoms: _256  and  _257
REMARK  115  A    between atoms: _262  and  _264
REMARK  116  A    between atoms: _264  and  _265
REMARK  117  A    between atoms: _264  and  _267
REMARK  118  A    between atoms: _267  and  _268
REMARK  119  A    between atoms: _271  and  _273
REMARK  120  A    between atoms: _273  and  _274
REMARK  121  A    between atoms: _273  and  _276
REMARK  122  A    between atoms: _276  and  _277
REMARK  123  A    between atoms: _280  and  _282
REMARK  124  A    between atoms: _282  and  _283
REMARK  125  A    between atoms: _282  and  _285
REMARK  126  A    between atoms: _285  and  _286
REMARK  127  A    between atoms: _289  and  _291
REMARK  128  A    between atoms: _291  and  _292
REMARK  129  A    between atoms: _291  and  _294
REMARK  130  A    between atoms: _294  and  _295
REMARK  131  A    between atoms: _298  and  _300
REMARK  132  A    between atoms: _300  and  _301
REMARK  133  A    between atoms: _300  and  _303
REMARK  134  A    between atoms: _303  and  _304
REMARK  135  A    between atoms: _307  and  _309
REMARK  136  A    between atoms: _309  and  _310
REMARK  137  A    between atoms: _309  and  _312
REMARK  138  A    between atoms: _312  and  _313
REMARK  139  A    between atoms: _319  and  _321
REMARK  140  A    between atoms: _321  and  _322
REMARK  141  A    between atoms: _321  and  _324
REMARK  142  A    between atoms: _324  and  _325
REMARK  143  A    between atoms: _328  and  _330
REMARK  144  A    between atoms: _330  and  _331
REMARK  145  A    between atoms: _330  and  _333
REMARK  146  A    between atoms: _333  and  _334
REMARK  147  A    between atoms: _334  and  _335
REMARK  148  A    between atoms: _335  and  _336
REMARK  149  A    between atoms: _345  and  _347
REMARK  150  A    between atoms: _347  and  _348
REMARK  151  A    between atoms: _350  and  _352
REMARK  152  A    between atoms: _352  and  _353
REMARK  153  A    between atoms: _355  and  _357
REMARK  154  A    between atoms: _357  and  _358
REMARK  155  A    between atoms: _357  and  _360
REMARK  156  A    between atoms: _360  and  _361
REMARK  157  A    between atoms: _364  and  _366
REMARK  158  A    between atoms: _366  and  _367
REMARK  159  A    between atoms: _366  and  _369
REMARK  160  A    between atoms: _369  and  _370
REMARK  161  A    between atoms: _373  and  _375
REMARK  162  A    between atoms: _375  and  _376
REMARK  163  A    between atoms: _375  and  _378
REMARK  164  A    between atoms: _378  and  _379
REMARK  165  A    between atoms: _385  and  _387
REMARK  166  A    between atoms: _387  and  _388
REMARK  167  A    between atoms: _387  and  _390
REMARK  168  A    between atoms: _390  and  _391
REMARK  169  A    between atoms: _394  and  _396
REMARK  170  A    between atoms: _396  and  _397
REMARK  171  A    between atoms: _396  and  _399
REMARK  172  A    between atoms: _399  and  _400
REMARK  173  A    between atoms: _400  and  _401
REMARK  174  A    between atoms: _401  and  _402
REMARK  175  A    between atoms: _402  and  _403
REMARK  176  A    between atoms: _408  and  _409
REMARK  177  A    between atoms: _414  and  _416
REMARK  178  A    between atoms: _416  and  _417
REMARK  179  A    between atoms: _416  and  _419
REMARK  180  A    between atoms: _419  and  _420
REMARK  181  A    between atoms: _420  and  _421
REMARK  182  A    between atoms: _424  and  _426
REMARK  183  A    between atoms: _426  and  _427
REMARK  184  A    between atoms: _426  and  _429
REMARK  185  A    between atoms: _429  and  _430
REMARK  186  A    between atoms: _435  and  _437
REMARK  187  A    between atoms: _437  and  _438
REMARK  188  A    between atoms: _437  and  _440
REMARK  189  A    between atoms: _440  and  _441
REMARK  190  A    between atoms: _444  and  _446
REMARK  191  A    between atoms: _446  and  _447
REMARK  192  A    between atoms: _446  and  _449
REMARK  193  A    between atoms: _449  and  _450
REMARK  194  A    between atoms: _453  and  _455
REMARK  195  A    between atoms: _455  and  _456
REMARK  196  A    between atoms: _455  and  _458
REMARK  197  A    between atoms: _458  and  _459
REMARK  198  A    between atoms: _462  and  _464
REMARK  199  A    between atoms: _464  and  _465
REMARK  200  A    between atoms: _464  and  _467
REMARK  201  A    between atoms: _467  and  _468
REMARK  202  A    between atoms: _468  and  _469
REMARK  203  A    between atoms: _469  and  _470
REMARK  204  A    between atoms: _470  and  _471
REMARK  205  A    between atoms: _475  and  _477
REMARK  206  A    between atoms: _477  and  _478
REMARK  207  A    between atoms: _477  and  _480
REMARK  208  A    between atoms: _480  and  _481
REMARK  209  A    between atoms: _484  and  _486
REMARK  210  A    between atoms: _486  and  _487
REMARK  211  A    between atoms: _486  and  _489
REMARK  212  A    between atoms: _489  and  _490
REMARK  213  A    between atoms: _493  and  _495
REMARK  214  A    between atoms: _495  and  _496
REMARK  215  A    between atoms: _495  and  _498
REMARK  216  A    between atoms: _498  and  _499
REMARK  217  A    between atoms: _502  and  _504
REMARK  218  A    between atoms: _504  and  _505
REMARK  219  A    between atoms: _504  and  _507
REMARK  220  A    between atoms: _507  and  _508
REMARK  221  A    between atoms: _514  and  _516
REMARK  222  A    between atoms: _516  and  _517
REMARK  223  A    between atoms: _519  and  _521
REMARK  224  A    between atoms: _521  and  _522
REMARK  225  A    between atoms: _521  and  _524
REMARK  226  A    between atoms: _524  and  _525
REMARK  227  A    between atoms: _528  and  _530
REMARK  228  A    between atoms: _530  and  _531
REMARK  229  A    between atoms: _530  and  _533
REMARK  230  A    between atoms: _533  and  _534
REMARK  231  A    between atoms: _536  and  _538
REMARK  232  A    between atoms: _538  and  _539
REMARK  233  A    between atoms: _538  and  _541
REMARK  234  A    between atoms: _541  and  _542
REMARK  235  A    between atoms: _542  and  _543
REMARK  236  A    between atoms: _543  and  _544
REMARK  237  A    between atoms: _544  and  _545
REMARK                            x       y       z     vdW  Elec       q    Type
REMARK                         _______ _______ _______ _____ _____    ______ ____
ROOT
ATOM      1  O   HOH     1      44.994   3.114  18.326  0.00  0.00    +0.000 OA
ENDROOT
TORSDOF 0
REMARK  Name = ../refined-set-2016/3ubd/3ubd_pocket.pdb
REMARK  237 active torsions:
REMARK  status: ('A' for Active; 'I' for Inactive)
REMARK    1  A    between atoms: _1  and  _5
REMARK    2  A    between atoms: _5  and  _6
REMARK    3  A    between atoms: _5  and  _8
REMARK    4  A    between atoms: _8  and  _9
REMARK    5  A    between atoms: _9  and  _10
REMARK    6  A    between atoms: _13  and  _15
REMARK    7  A    between atoms: _15  and  _16
REMARK    8  A    between atoms: _15  and  _18
REMARK    9  A    between atoms: _18  and  _19
REMARK   10  A    between atoms: _22  and  _24
REMARK   11  A    between atoms: _24  and  _25
REMARK   12  A    between atoms: _28  and  _30
REMARK   13  A    between atoms: _30  and  _31
REMARK   14  A    between atoms: _30  and  _33
REMARK   15  A    between atoms: _33  and  _34
REMARK   16  A    between atoms: _37  and  _39
REMARK   17  A    between atoms: _39  and  _40
REMARK   18  A    between atoms: _39  and  _42
REMARK   19  A    between atoms: _42  and  _43
REMARK   20  A    between atoms: _43  and  _44
REMARK   21  A    between atoms: _49  and  _51
REMARK   22  A    between atoms: _51  and  _52
REMARK   23  A    between atoms: _54  and  _56
REMARK   24  A    between atoms: _56  and  _57
REMARK   25  A    between atoms: _56  and  _59
REMARK   26  A    between atoms: _59  and  _60
REMARK   27  A    between atoms: _62  and  _64
REMARK   28  A    between atoms: _64  and  _65
REMARK   29  A    between atoms: _64  and  _67
REMARK   30  A    between atoms: _67  and  _68
REMARK   31  A    between atoms: _74  and  _76
REMARK   32  A    between atoms: _76  and  _77
REMARK   33  A    between atoms: _79  and  _81
REMARK   34  A    between atoms: _81  and  _82
REMARK   35  A    between atoms: _81  and  _84
REMARK   36  A    between atoms: _84  and  _85
REMARK   37  A    between atoms: _85  and  _86
REMARK   38  A    between atoms: _86  and  _87
REMARK   39  A    between atoms: _87  and  _88
REMARK   40  A    between atoms: _92  and  _94
REMARK   41  A    between atoms: _94  and  _95
REMARK   42  A    between atoms: _94  and  _97
REMARK   43  A    between atoms: _100  and  _102
REMARK   44  A    between atoms: _102  and  _103
REMARK   45  A    between atoms: _102  and  _105
REMARK   46  A    between atoms: _105  and  _106
REMARK   47  A    between atoms: _112  and  _114
REMARK   48  A    between atoms: _114  and  _115
REMARK   49  A    between atoms: _114  and  _117
REMARK   50  A    between atoms: _117  and  _118
REMARK   51  A    between atoms: _123  and  _124
REMARK   52  A    between atoms: _126  and  _128
REMARK   53  A    between atoms: _128  and  _129
REMARK   54  A    between atoms: _132  and  _134
REMARK   55  A    between atoms: _134  and  _135
REMARK   56  A    between atoms: _134  and  _137
REMARK   57  A    between atoms: _137  and  _138
REMARK   58  A    between atoms: _138  and  _139
REMARK   59  A    between atoms: _141  and  _143
REMARK   60  A    between atoms: _143  and  _144
REMARK   61  A    between atoms: _143  and  _146
REMARK   62  A    between atoms: _146  and  _147
REMARK   63  A    between atoms: _147  and  _148
REMARK   64  A    between atoms: _148  and  _149
REMARK   65  A    between atoms: _149  and  _150
REMARK   66  A    between atoms: _154  and  _156
REMARK   67  A    between atoms: _156  and  _157
REMARK   68  A    between atoms: _156  and  _159
REMARK   69  A    between atoms: _162  and  _164
REMARK   70  A    between atoms: _164  and  _165
REMARK   71  A    between atoms: _164  and  _167
REMARK   72  A    between atoms: _167  and  _168
REMARK   73  A    between atoms: _171  and  _173
REMARK   74  A    between atoms: _173  and  _174
REMARK   75  A    between atoms: _173  and  _176
REMARK   76  A    between atoms: _176  and  _177
REMARK   77  A    between atoms: _177  and  _178
REMARK   78  A    between atoms: _178  and  _179
REMARK   79  A    between atoms: _179  and  _180
REMARK   80  A    between atoms: _184  and  _186
REMARK   81  A    between atoms: _186  and  _187
REMARK   82  A    between atoms: _186  and  _189
REMARK   83  A    between atoms: _189  and  _190
REMARK   84  A    between atoms: _190  and  _191
REMARK   85  A    between atoms: _191  and  _192
REMARK   86  A    between atoms: _192  and  _193
REMARK   87  A    between atoms: _197  and  _199
REMARK   88  A    between atoms: _199  and  _200
REMARK   89  A    between atoms: _203  and  _205
REMARK   90  A    between atoms: _205  and  _206
REMARK   91  A    between atoms: _205  and  _208
REMARK   92  A    between atoms: _208  and  _209
REMARK   93  A    between atoms: _212  and  _214
REMARK   94  A    between atoms: _214  and  _215
REMARK   95  A    between atoms: _214  and  _217
REMARK   96  A    between atoms: _217  and  _218
REMARK   97  A    between atoms: _221  and  _223
REMARK   98  A    between atoms: _223  and  _224
REMARK   99  A    between atoms: _223  and  _226
REMARK  100  A    between atoms: _229  and  _231
REMARK  101  A    between atoms: _231  and  _232
REMARK  102  A    between atoms: _231  and  _234
REMARK  103  A    between atoms: _234  and  _235
REMARK  104  A    between atoms: _235  and  _236
REMARK  105  A    between atoms: _236  and  _237
REMARK  106  A    between atoms: _237  and  _238
REMARK  107  A    between atoms: _242  and  _244
REMARK  108  A    between atoms: _244  and  _245
REMARK  109  A    between atoms: _244  and  _247
REMARK  110  A    between atoms: _247  and  _248
REMARK  111  A    between atoms: _251  and  _253
REMARK  112  A    between atoms: _253  and  _254
REMARK  113  A    between atoms: _253  and  _256
REMARK  114  A    between atoms: _256  and  _257
REMARK  115  A    between atoms: _262  and  _264
REMARK  116  A    between atoms: _264  and  _265
REMARK  117  A    between atoms: _264  and  _267
REMARK  118  A    between atoms: _267  and  _268
REMARK  119  A    between atoms: _271  and  _273
REMARK  120  A    between atoms: _273  and  _274
REMARK  121  A    between atoms: _273  and  _276
REMARK  122  A    between atoms: _276  and  _277
REMARK  123  A    between atoms: _280  and  _282
REMARK  124  A    between atoms: _282  and  _283
REMARK  125  A    between atoms: _282  and  _285
REMARK  126  A    between atoms: _285  and  _286
REMARK  127  A    between atoms: _289  and  _291
REMARK  128  A    between atoms: _291  and  _292
REMARK  129  A    between atoms: _291  and  _294
REMARK  130  A    between atoms: _294  and  _295
REMARK  131  A    between atoms: _298  and  _300
REMARK  132  A    between atoms: _300  and  _301
REMARK  133  A    between atoms: _300  and  _303
REMARK  134  A    between atoms: _303  and  _304
REMARK  135  A    between atoms: _307  and  _309
REMARK  136  A    between atoms: _309  and  _310
REMARK  137  A    between atoms: _309  and  _312
REMARK  138  A    between atoms: _312  and  _313
REMARK  139  A    between atoms: _319  and  _321
REMARK  140  A    between atoms: _321  and  _322
REMARK  141  A    between atoms: _321  and  _324
REMARK  142  A    between atoms: _324  and  _325
REMARK  143  A    between atoms: _328  and  _330
REMARK  144  A    between atoms: _330  and  _331
REMARK  145  A    between atoms: _330  and  _333
REMARK  146  A    between atoms: _333  and  _334
REMARK  147  A    between atoms: _334  and  _335
REMARK  148  A    between atoms: _335  and  _336
REMARK  149  A    between atoms: _345  and  _347
REMARK  150  A    between atoms: _347  and  _348
REMARK  151  A    between atoms: _350  and  _352
REMARK  152  A    between atoms: _352  and  _353
REMARK  153  A    between atoms: _355  and  _357
REMARK  154  A    between atoms: _357  and  _358
REMARK  155  A    between atoms: _357  and  _360
REMARK  156  A    between atoms: _360  and  _361
REMARK  157  A    between atoms: _364  and  _366
REMARK  158  A    between atoms: _366  and  _367
REMARK  159  A    between atoms: _366  and  _369
REMARK  160  A    between atoms: _369  and  _370
REMARK  161  A    between atoms: _373  and  _375
REMARK  162  A    between atoms: _375  and  _376
REMARK  163  A    between atoms: _375  and  _378
REMARK  164  A    between atoms: _378  and  _379
REMARK  165  A    between atoms: _385  and  _387
REMARK  166  A    between atoms: _387  and  _388
REMARK  167  A    between atoms: _387  and  _390
REMARK  168  A    between atoms: _390  and  _391
REMARK  169  A    between atoms: _394  and  _396
REMARK  170  A    between atoms: _396  and  _397
REMARK  171  A    between atoms: _396  and  _399
REMARK  172  A    between atoms: _399  and  _400
REMARK  173  A    between atoms: _400  and  _401
REMARK  174  A    between atoms: _401  and  _402
REMARK  175  A    between atoms: _402  and  _403
REMARK  176  A    between atoms: _408  and  _409
REMARK  177  A    between atoms: _414  and  _416
REMARK  178  A    between atoms: _416  and  _417
REMARK  179  A    between atoms: _416  and  _419
REMARK  180  A    between atoms: _419  and  _420
REMARK  181  A    between atoms: _420  and  _421
REMARK  182  A    between atoms: _424  and  _426
REMARK  183  A    between atoms: _426  and  _427
REMARK  184  A    between atoms: _426  and  _429
REMARK  185  A    between atoms: _429  and  _430
REMARK  186  A    between atoms: _435  and  _437
REMARK  187  A    between atoms: _437  and  _438
REMARK  188  A    between atoms: _437  and  _440
REMARK  189  A    between atoms: _440  and  _441
REMARK  190  A    between atoms: _444  and  _446
REMARK  191  A    between atoms: _446  and  _447
REMARK  192  A    between atoms: _446  and  _449
REMARK  193  A    between atoms: _449  and  _450
REMARK  194  A    between atoms: _453  and  _455
REMARK  195  A    between atoms: _455  and  _456
REMARK  196  A    between atoms: _455  and  _458
REMARK  197  A    between atoms: _458  and  _459
REMARK  198  A    between atoms: _462  and  _464
REMARK  199  A    between atoms: _464  and  _465
REMARK  200  A    between atoms: _464  and  _467
REMARK  201  A    between atoms: _467  and  _468
REMARK  202  A    between atoms: _468  and  _469
REMARK  203  A    between atoms: _469  and  _470
REMARK  204  A    between atoms: _470  and  _471
REMARK  205  A    between atoms: _475  and  _477
REMARK  206  A    between atoms: _477  and  _478
REMARK  207  A    between atoms: _477  and  _480
REMARK  208  A    between atoms: _480  and  _481
REMARK  209  A    between atoms: _484  and  _486
REMARK  210  A    between atoms: _486  and  _487
REMARK  211  A    between atoms: _486  and  _489
REMARK  212  A    between atoms: _489  and  _490
REMARK  213  A    between atoms: _493  and  _495
REMARK  214  A    between atoms: _495  and  _496
REMARK  215  A    between atoms: _495  and  _498
REMARK  216  A    between atoms: _498  and  _499
REMARK  217  A    between atoms: _502  and  _504
REMARK  218  A    between atoms: _504  and  _505
REMARK  219  A    between atoms: _504  and  _507
REMARK  220  A    between atoms: _507  and  _508
REMARK  221  A    between atoms: _514  and  _516
REMARK  222  A    between atoms: _516  and  _517
REMARK  223  A    between atoms: _519  and  _521
REMARK  224  A    between atoms: _521  and  _522
REMARK  225  A    between atoms: _521  and  _524
REMARK  226  A    between atoms: _524  and  _525
REMARK  227  A    between atoms: _528  and  _530
REMARK  228  A    between atoms: _530  and  _531
REMARK  229  A    between atoms: _530  and  _533
REMARK  230  A    between atoms: _533  and  _534
REMARK  231  A    between atoms: _536  and  _538
REMARK  232  A    between atoms: _538  and  _539
REMARK  233  A    between atoms: _538  and  _541
REMARK  234  A    between atoms: _541  and  _542
REMARK  235  A    between atoms: _542  and  _543
REMARK  236  A    between atoms: _543  and  _544
REMARK  237  A    between atoms: _544  and  _545
REMARK                            x       y       z     vdW  Elec       q    Type
REMARK                         _______ _______ _______ _____ _____    ______ ____
ROOT
ATOM      1  O   HOH     1      40.726   0.945   9.893  0.00  0.00    +0.000 OA
ENDROOT
TORSDOF 0
REMARK  Name = ../refined-set-2016/3ubd/3ubd_pocket.pdb
REMARK  237 active torsions:
REMARK  status: ('A' for Active; 'I' for Inactive)
REMARK    1  A    between atoms: _1  and  _5
REMARK    2  A    between atoms: _5  and  _6
REMARK    3  A    between atoms: _5  and  _8
REMARK    4  A    between atoms: _8  and  _9
REMARK    5  A    between atoms: _9  and  _10
REMARK    6  A    between atoms: _13  and  _15
REMARK    7  A    between atoms: _15  and  _16
REMARK    8  A    between atoms: _15  and  _18
REMARK    9  A    between atoms: _18  and  _19
REMARK   10  A    between atoms: _22  and  _24
REMARK   11  A    between atoms: _24  and  _25
REMARK   12  A    between atoms: _28  and  _30
REMARK   13  A    between atoms: _30  and  _31
REMARK   14  A    between atoms: _30  and  _33
REMARK   15  A    between atoms: _33  and  _34
REMARK   16  A    between atoms: _37  and  _39
REMARK   17  A    between atoms: _39  and  _40
REMARK   18  A    between atoms: _39  and  _42
REMARK   19  A    between atoms: _42  and  _43
REMARK   20  A    between atoms: _43  and  _44
REMARK   21  A    between atoms: _49  and  _51
REMARK   22  A    between atoms: _51  and  _52
REMARK   23  A    between atoms: _54  and  _56
REMARK   24  A    between atoms: _56  and  _57
REMARK   25  A    between atoms: _56  and  _59
REMARK   26  A    between atoms: _59  and  _60
REMARK   27  A    between atoms: _62  and  _64
REMARK   28  A    between atoms: _64  and  _65
REMARK   29  A    between atoms: _64  and  _67
REMARK   30  A    between atoms: _67  and  _68
REMARK   31  A    between atoms: _74  and  _76
REMARK   32  A    between atoms: _76  and  _77
REMARK   33  A    between atoms: _79  and  _81
REMARK   34  A    between atoms: _81  and  _82
REMARK   35  A    between atoms: _81  and  _84
REMARK   36  A    between atoms: _84  and  _85
REMARK   37  A    between atoms: _85  and  _86
REMARK   38  A    between atoms: _86  and  _87
REMARK   39  A    between atoms: _87  and  _88
REMARK   40  A    between atoms: _92  and  _94
REMARK   41  A    between atoms: _94  and  _95
REMARK   42  A    between atoms: _94  and  _97
REMARK   43  A    between atoms: _100  and  _102
REMARK   44  A    between atoms: _102  and  _103
REMARK   45  A    between atoms: _102  and  _105
REMARK   46  A    between atoms: _105  and  _106
REMARK   47  A    between atoms: _112  and  _114
REMARK   48  A    between atoms: _114  and  _115
REMARK   49  A    between atoms: _114  and  _117
REMARK   50  A    between atoms: _117  and  _118
REMARK   51  A    between atoms: _123  and  _124
REMARK   52  A    between atoms: _126  and  _128
REMARK   53  A    between atoms: _128  and  _129
REMARK   54  A    between atoms: _132  and  _134
REMARK   55  A    between atoms: _134  and  _135
REMARK   56  A    between atoms: _134  and  _137
REMARK   57  A    between atoms: _137  and  _138
REMARK   58  A    between atoms: _138  and  _139
REMARK   59  A    between atoms: _141  and  _143
REMARK   60  A    between atoms: _143  and  _144
REMARK   61  A    between atoms: _143  and  _146
REMARK   62  A    between atoms: _146  and  _147
REMARK   63  A    between atoms: _147  and  _148
REMARK   64  A    between atoms: _148  and  _149
REMARK   65  A    between atoms: _149  and  _150
REMARK   66  A    between atoms: _154  and  _156
REMARK   67  A    between atoms: _156  and  _157
REMARK   68  A    between atoms: _156  and  _159
REMARK   69  A    between atoms: _162  and  _164
REMARK   70  A    between atoms: _164  and  _165
REMARK   71  A    between atoms: _164  and  _167
REMARK   72  A    between atoms: _167  and  _168
REMARK   73  A    between atoms: _171  and  _173
REMARK   74  A    between atoms: _173  and  _174
REMARK   75  A    between atoms: _173  and  _176
REMARK   76  A    between atoms: _176  and  _177
REMARK   77  A    between atoms: _177  and  _178
REMARK   78  A    between atoms: _178  and  _179
REMARK   79  A    between atoms: _179  and  _180
REMARK   80  A    between atoms: _184  and  _186
REMARK   81  A    between atoms: _186  and  _187
REMARK   82  A    between atoms: _186  and  _189
REMARK   83  A    between atoms: _189  and  _190
REMARK   84  A    between atoms: _190  and  _191
REMARK   85  A    between atoms: _191  and  _192
REMARK   86  A    between atoms: _192  and  _193
REMARK   87  A    between atoms: _197  and  _199
REMARK   88  A    between atoms: _199  and  _200
REMARK   89  A    between atoms: _203  and  _205
REMARK   90  A    between atoms: _205  and  _206
REMARK   91  A    between atoms: _205  and  _208
REMARK   92  A    between atoms: _208  and  _209
REMARK   93  A    between atoms: _212  and  _214
REMARK   94  A    between atoms: _214  and  _215
REMARK   95  A    between atoms: _214  and  _217
REMARK   96  A    between atoms: _217  and  _218
REMARK   97  A    between atoms: _221  and  _223
REMARK   98  A    between atoms: _223  and  _224
REMARK   99  A    between atoms: _223  and  _226
REMARK  100  A    between atoms: _229  and  _231
REMARK  101  A    between atoms: _231  and  _232
REMARK  102  A    between atoms: _231  and  _234
REMARK  103  A    between atoms: _234  and  _235
REMARK  104  A    between atoms: _235  and  _236
REMARK  105  A    between atoms: _236  and  _237
REMARK  106  A    between atoms: _237  and  _238
REMARK  107  A    between atoms: _242  and  _244
REMARK  108  A    between atoms: _244  and  _245
REMARK  109  A    between atoms: _244  and  _247
REMARK  110  A    between atoms: _247  and  _248
REMARK  111  A    between atoms: _251  and  _253
REMARK  112  A    between atoms: _253  and  _254
REMARK  113  A    between atoms: _253  and  _256
REMARK  114  A    between atoms: _256  and  _257
REMARK  115  A    between atoms: _262  and  _264
REMARK  116  A    between atoms: _264  and  _265
REMARK  117  A    between atoms: _264  and  _267
REMARK  118  A    between atoms: _267  and  _268
REMARK  119  A    between atoms: _271  and  _273
REMARK  120  A    between atoms: _273  and  _274
REMARK  121  A    between atoms: _273  and  _276
REMARK  122  A    between atoms: _276  and  _277
REMARK  123  A    between atoms: _280  and  _282
REMARK  124  A    between atoms: _282  and  _283
REMARK  125  A    between atoms: _282  and  _285
REMARK  126  A    between atoms: _285  and  _286
REMARK  127  A    between atoms: _289  and  _291
REMARK  128  A    between atoms: _291  and  _292
REMARK  129  A    between atoms: _291  and  _294
REMARK  130  A    between atoms: _294  and  _295
REMARK  131  A    between atoms: _298  and  _300
REMARK  132  A    between atoms: _300  and  _301
REMARK  133  A    between atoms: _300  and  _303
REMARK  134  A    between atoms: _303  and  _304
REMARK  135  A    between atoms: _307  and  _309
REMARK  136  A    between atoms: _309  and  _310
REMARK  137  A    between atoms: _309  and  _312
REMARK  138  A    between atoms: _312  and  _313
REMARK  139  A    between atoms: _319  and  _321
REMARK  140  A    between atoms: _321  and  _322
REMARK  141  A    between atoms: _321  and  _324
REMARK  142  A    between atoms: _324  and  _325
REMARK  143  A    between atoms: _328  and  _330
REMARK  144  A    between atoms: _330  and  _331
REMARK  145  A    between atoms: _330  and  _333
REMARK  146  A    between atoms: _333  and  _334
REMARK  147  A    between atoms: _334  and  _335
REMARK  148  A    between atoms: _335  and  _336
REMARK  149  A    between atoms: _345  and  _347
REMARK  150  A    between atoms: _347  and  _348
REMARK  151  A    between atoms: _350  and  _352
REMARK  152  A    between atoms: _352  and  _353
REMARK  153  A    between atoms: _355  and  _357
REMARK  154  A    between atoms: _357  and  _358
REMARK  155  A    between atoms: _357  and  _360
REMARK  156  A    between atoms: _360  and  _361
REMARK  157  A    between atoms: _364  and  _366
REMARK  158  A    between atoms: _366  and  _367
REMARK  159  A    between atoms: _366  and  _369
REMARK  160  A    between atoms: _369  and  _370
REMARK  161  A    between atoms: _373  and  _375
REMARK  162  A    between atoms: _375  and  _376
REMARK  163  A    between atoms: _375  and  _378
REMARK  164  A    between atoms: _378  and  _379
REMARK  165  A    between atoms: _385  and  _387
REMARK  166  A    between atoms: _387  and  _388
REMARK  167  A    between atoms: _387  and  _390
REMARK  168  A    between atoms: _390  and  _391
REMARK  169  A    between atoms: _394  and  _396
REMARK  170  A    between atoms: _396  and  _397
REMARK  171  A    between atoms: _396  and  _399
REMARK  172  A    between atoms: _399  and  _400
REMARK  173  A    between atoms: _400  and  _401
REMARK  174  A    between atoms: _401  and  _402
REMARK  175  A    between atoms: _402  and  _403
REMARK  176  A    between atoms: _408  and  _409
REMARK  177  A    between atoms: _414  and  _416
REMARK  178  A    between atoms: _416  and  _417
REMARK  179  A    between atoms: _416  and  _419
REMARK  180  A    between atoms: _419  and  _420
REMARK  181  A    between atoms: _420  and  _421
REMARK  182  A    between atoms: _424  and  _426
REMARK  183  A    between atoms: _426  and  _427
REMARK  184  A    between atoms: _426  and  _429
REMARK  185  A    between atoms: _429  and  _430
REMARK  186  A    between atoms: _435  and  _437
REMARK  187  A    between atoms: _437  and  _438
REMARK  188  A    between atoms: _437  and  _440
REMARK  189  A    between atoms: _440  and  _441
REMARK  190  A    between atoms: _444  and  _446
REMARK  191  A    between atoms: _446  and  _447
REMARK  192  A    between atoms: _446  and  _449
REMARK  193  A    between atoms: _449  and  _450
REMARK  194  A    between atoms: _453  and  _455
REMARK  195  A    between atoms: _455  and  _456
REMARK  196  A    between atoms: _455  and  _458
REMARK  197  A    between atoms: _458  and  _459
REMARK  198  A    between atoms: _462  and  _464
REMARK  199  A    between atoms: _464  and  _465
REMARK  200  A    between atoms: _464  and  _467
REMARK  201  A    between atoms: _467  and  _468
REMARK  202  A    between atoms: _468  and  _469
REMARK  203  A    between atoms: _469  and  _470
REMARK  204  A    between atoms: _470  and  _471
REMARK  205  A    between atoms: _475  and  _477
REMARK  206  A    between atoms: _477  and  _478
REMARK  207  A    between atoms: _477  and  _480
REMARK  208  A    between atoms: _480  and  _481
REMARK  209  A    between atoms: _484  and  _486
REMARK  210  A    between atoms: _486  and  _487
REMARK  211  A    between atoms: _486  and  _489
REMARK  212  A    between atoms: _489  and  _490
REMARK  213  A    between atoms: _493  and  _495
REMARK  214  A    between atoms: _495  and  _496
REMARK  215  A    between atoms: _495  and  _498
REMARK  216  A    between atoms: _498  and  _499
REMARK  217  A    between atoms: _502  and  _504
REMARK  218  A    between atoms: _504  and  _505
REMARK  219  A    between atoms: _504  and  _507
REMARK  220  A    between atoms: _507  and  _508
REMARK  221  A    between atoms: _514  and  _516
REMARK  222  A    between atoms: _516  and  _517
REMARK  223  A    between atoms: _519  and  _521
REMARK  224  A    between atoms: _521  and  _522
REMARK  225  A    between atoms: _521  and  _524
REMARK  226  A    between atoms: _524  and  _525
REMARK  227  A    between atoms: _528  and  _530
REMARK  228  A    between atoms: _530  and  _531
REMARK  229  A    between atoms: _530  and  _533
REMARK  230  A    between atoms: _533  and  _534
REMARK  231  A    between atoms: _536  and  _538
REMARK  232  A    between atoms: _538  and  _539
REMARK  233  A    between atoms: _538  and  _541
REMARK  234  A    between atoms: _541  and  _542
REMARK  235  A    between atoms: _542  and  _543
REMARK  236  A    between atoms: _543  and  _544
REMARK  237  A    between atoms: _544  and  _545
REMARK                            x       y       z     vdW  Elec       q    Type
REMARK                         _______ _______ _______ _____ _____    ______ ____
ROOT
ATOM      1  O   HOH     1      39.511   7.807   2.664  0.00  0.00    +0.000 OA
ENDROOT
TORSDOF 0
REMARK  Name = ../refined-set-2016/3ubd/3ubd_pocket.pdb
REMARK  237 active torsions:
REMARK  status: ('A' for Active; 'I' for Inactive)
REMARK    1  A    between atoms: _1  and  _5
REMARK    2  A    between atoms: _5  and  _6
REMARK    3  A    between atoms: _5  and  _8
REMARK    4  A    between atoms: _8  and  _9
REMARK    5  A    between atoms: _9  and  _10
REMARK    6  A    between atoms: _13  and  _15
REMARK    7  A    between atoms: _15  and  _16
REMARK    8  A    between atoms: _15  and  _18
REMARK    9  A    between atoms: _18  and  _19
REMARK   10  A    between atoms: _22  and  _24
REMARK   11  A    between atoms: _24  and  _25
REMARK   12  A    between atoms: _28  and  _30
REMARK   13  A    between atoms: _30  and  _31
REMARK   14  A    between atoms: _30  and  _33
REMARK   15  A    between atoms: _33  and  _34
REMARK   16  A    between atoms: _37  and  _39
REMARK   17  A    between atoms: _39  and  _40
REMARK   18  A    between atoms: _39  and  _42
REMARK   19  A    between atoms: _42  and  _43
REMARK   20  A    between atoms: _43  and  _44
REMARK   21  A    between atoms: _49  and  _51
REMARK   22  A    between atoms: _51  and  _52
REMARK   23  A    between atoms: _54  and  _56
REMARK   24  A    between atoms: _56  and  _57
REMARK   25  A    between atoms: _56  and  _59
REMARK   26  A    between atoms: _59  and  _60
REMARK   27  A    between atoms: _62  and  _64
REMARK   28  A    between atoms: _64  and  _65
REMARK   29  A    between atoms: _64  and  _67
REMARK   30  A    between atoms: _67  and  _68
REMARK   31  A    between atoms: _74  and  _76
REMARK   32  A    between atoms: _76  and  _77
REMARK   33  A    between atoms: _79  and  _81
REMARK   34  A    between atoms: _81  and  _82
REMARK   35  A    between atoms: _81  and  _84
REMARK   36  A    between atoms: _84  and  _85
REMARK   37  A    between atoms: _85  and  _86
REMARK   38  A    between atoms: _86  and  _87
REMARK   39  A    between atoms: _87  and  _88
REMARK   40  A    between atoms: _92  and  _94
REMARK   41  A    between atoms: _94  and  _95
REMARK   42  A    between atoms: _94  and  _97
REMARK   43  A    between atoms: _100  and  _102
REMARK   44  A    between atoms: _102  and  _103
REMARK   45  A    between atoms: _102  and  _105
REMARK   46  A    between atoms: _105  and  _106
REMARK   47  A    between atoms: _112  and  _114
REMARK   48  A    between atoms: _114  and  _115
REMARK   49  A    between atoms: _114  and  _117
REMARK   50  A    between atoms: _117  and  _118
REMARK   51  A    between atoms: _123  and  _124
REMARK   52  A    between atoms: _126  and  _128
REMARK   53  A    between atoms: _128  and  _129
REMARK   54  A    between atoms: _132  and  _134
REMARK   55  A    between atoms: _134  and  _135
REMARK   56  A    between atoms: _134  and  _137
REMARK   57  A    between atoms: _137  and  _138
REMARK   58  A    between atoms: _138  and  _139
REMARK   59  A    between atoms: _141  and  _143
REMARK   60  A    between atoms: _143  and  _144
REMARK   61  A    between atoms: _143  and  _146
REMARK   62  A    between atoms: _146  and  _147
REMARK   63  A    between atoms: _147  and  _148
REMARK   64  A    between atoms: _148  and  _149
REMARK   65  A    between atoms: _149  and  _150
REMARK   66  A    between atoms: _154  and  _156
REMARK   67  A    between atoms: _156  and  _157
REMARK   68  A    between atoms: _156  and  _159
REMARK   69  A    between atoms: _162  and  _164
REMARK   70  A    between atoms: _164  and  _165
REMARK   71  A    between atoms: _164  and  _167
REMARK   72  A    between atoms: _167  and  _168
REMARK   73  A    between atoms: _171  and  _173
REMARK   74  A    between atoms: _173  and  _174
REMARK   75  A    between atoms: _173  and  _176
REMARK   76  A    between atoms: _176  and  _177
REMARK   77  A    between atoms: _177  and  _178
REMARK   78  A    between atoms: _178  and  _179
REMARK   79  A    between atoms: _179  and  _180
REMARK   80  A    between atoms: _184  and  _186
REMARK   81  A    between atoms: _186  and  _187
REMARK   82  A    between atoms: _186  and  _189
REMARK   83  A    between atoms: _189  and  _190
REMARK   84  A    between atoms: _190  and  _191
REMARK   85  A    between atoms: _191  and  _192
REMARK   86  A    between atoms: _192  and  _193
REMARK   87  A    between atoms: _197  and  _199
REMARK   88  A    between atoms: _199  and  _200
REMARK   89  A    between atoms: _203  and  _205
REMARK   90  A    between atoms: _205  and  _206
REMARK   91  A    between atoms: _205  and  _208
REMARK   92  A    between atoms: _208  and  _209
REMARK   93  A    between atoms: _212  and  _214
REMARK   94  A    between atoms: _214  and  _215
REMARK   95  A    between atoms: _214  and  _217
REMARK   96  A    between atoms: _217  and  _218
REMARK   97  A    between atoms: _221  and  _223
REMARK   98  A    between atoms: _223  and  _224
REMARK   99  A    between atoms: _223  and  _226
REMARK  100  A    between atoms: _229  and  _231
REMARK  101  A    between atoms: _231  and  _232
REMARK  102  A    between atoms: _231  and  _234
REMARK  103  A    between atoms: _234  and  _235
REMARK  104  A    between atoms: _235  and  _236
REMARK  105  A    between atoms: _236  and  _237
REMARK  106  A    between atoms: _237  and  _238
REMARK  107  A    between atoms: _242  and  _244
REMARK  108  A    between atoms: _244  and  _245
REMARK  109  A    between atoms: _244  and  _247
REMARK  110  A    between atoms: _247  and  _248
REMARK  111  A    between atoms: _251  and  _253
REMARK  112  A    between atoms: _253  and  _254
REMARK  113  A    between atoms: _253  and  _256
REMARK  114  A    between atoms: _256  and  _257
REMARK  115  A    between atoms: _262  and  _264
REMARK  116  A    between atoms: _264  and  _265
REMARK  117  A    between atoms: _264  and  _267
REMARK  118  A    between atoms: _267  and  _268
REMARK  119  A    between atoms: _271  and  _273
REMARK  120  A    between atoms: _273  and  _274
REMARK  121  A    between atoms: _273  and  _276
REMARK  122  A    between atoms: _276  and  _277
REMARK  123  A    between atoms: _280  and  _282
REMARK  124  A    between atoms: _282  and  _283
REMARK  125  A    between atoms: _282  and  _285
REMARK  126  A    between atoms: _285  and  _286
REMARK  127  A    between atoms: _289  and  _291
REMARK  128  A    between atoms: _291  and  _292
REMARK  129  A    between atoms: _291  and  _294
REMARK  130  A    between atoms: _294  and  _295
REMARK  131  A    between atoms: _298  and  _300
REMARK  132  A    between atoms: _300  and  _301
REMARK  133  A    between atoms: _300  and  _303
REMARK  134  A    between atoms: _303  and  _304
REMARK  135  A    between atoms: _307  and  _309
REMARK  136  A    between atoms: _309  and  _310
REMARK  137  A    between atoms: _309  and  _312
REMARK  138  A    between atoms: _312  and  _313
REMARK  139  A    between atoms: _319  and  _321
REMARK  140  A    between atoms: _321  and  _322
REMARK  141  A    between atoms: _321  and  _324
REMARK  142  A    between atoms: _324  and  _325
REMARK  143  A    between atoms: _328  and  _330
REMARK  144  A    between atoms: _330  and  _331
REMARK  145  A    between atoms: _330  and  _333
REMARK  146  A    between atoms: _333  and  _334
REMARK  147  A    between atoms: _334  and  _335
REMARK  148  A    between atoms: _335  and  _336
REMARK  149  A    between atoms: _345  and  _347
REMARK  150  A    between atoms: _347  and  _348
REMARK  151  A    between atoms: _350  and  _352
REMARK  152  A    between atoms: _352  and  _353
REMARK  153  A    between atoms: _355  and  _357
REMARK  154  A    between atoms: _357  and  _358
REMARK  155  A    between atoms: _357  and  _360
REMARK  156  A    between atoms: _360  and  _361
REMARK  157  A    between atoms: _364  and  _366
REMARK  158  A    between atoms: _366  and  _367
REMARK  159  A    between atoms: _366  and  _369
REMARK  160  A    between atoms: _369  and  _370
REMARK  161  A    between atoms: _373  and  _375
REMARK  162  A    between atoms: _375  and  _376
REMARK  163  A    between atoms: _375  and  _378
REMARK  164  A    between atoms: _378  and  _379
REMARK  165  A    between atoms: _385  and  _387
REMARK  166  A    between atoms: _387  and  _388
REMARK  167  A    between atoms: _387  and  _390
REMARK  168  A    between atoms: _390  and  _391
REMARK  169  A    between atoms: _394  and  _396
REMARK  170  A    between atoms: _396  and  _397
REMARK  171  A    between atoms: _396  and  _399
REMARK  172  A    between atoms: _399  and  _400
REMARK  173  A    between atoms: _400  and  _401
REMARK  174  A    between atoms: _401  and  _402
REMARK  175  A    between atoms: _402  and  _403
REMARK  176  A    between atoms: _408  and  _409
REMARK  177  A    between atoms: _414  and  _416
REMARK  178  A    between atoms: _416  and  _417
REMARK  179  A    between atoms: _416  and  _419
REMARK  180  A    between atoms: _419  and  _420
REMARK  181  A    between atoms: _420  and  _421
REMARK  182  A    between atoms: _424  and  _426
REMARK  183  A    between atoms: _426  and  _427
REMARK  184  A    between atoms: _426  and  _429
REMARK  185  A    between atoms: _429  and  _430
REMARK  186  A    between atoms: _435  and  _437
REMARK  187  A    between atoms: _437  and  _438
REMARK  188  A    between atoms: _437  and  _440
REMARK  189  A    between atoms: _440  and  _441
REMARK  190  A    between atoms: _444  and  _446
REMARK  191  A    between atoms: _446  and  _447
REMARK  192  A    between atoms: _446  and  _449
REMARK  193  A    between atoms: _449  and  _450
REMARK  194  A    between atoms: _453  and  _455
REMARK  195  A    between atoms: _455  and  _456
REMARK  196  A    between atoms: _455  and  _458
REMARK  197  A    between atoms: _458  and  _459
REMARK  198  A    between atoms: _462  and  _464
REMARK  199  A    between atoms: _464  and  _465
REMARK  200  A    between atoms: _464  and  _467
REMARK  201  A    between atoms: _467  and  _468
REMARK  202  A    between atoms: _468  and  _469
REMARK  203  A    between atoms: _469  and  _470
REMARK  204  A    between atoms: _470  and  _471
REMARK  205  A    between atoms: _475  and  _477
REMARK  206  A    between atoms: _477  and  _478
REMARK  207  A    between atoms: _477  and  _480
REMARK  208  A    between atoms: _480  and  _481
REMARK  209  A    between atoms: _484  and  _486
REMARK  210  A    between atoms: _486  and  _487
REMARK  211  A    between atoms: _486  and  _489
REMARK  212  A    between atoms: _489  and  _490
REMARK  213  A    between atoms: _493  and  _495
REMARK  214  A    between atoms: _495  and  _496
REMARK  215  A    between atoms: _495  and  _498
REMARK  216  A    between atoms: _498  and  _499
REMARK  217  A    between atoms: _502  and  _504
REMARK  218  A    between atoms: _504  and  _505
REMARK  219  A    between atoms: _504  and  _507
REMARK  220  A    between atoms: _507  and  _508
REMARK  221  A    between atoms: _514  and  _516
REMARK  222  A    between atoms: _516  and  _517
REMARK  223  A    between atoms: _519  and  _521
REMARK  224  A    between atoms: _521  and  _522
REMARK  225  A    between atoms: _521  and  _524
REMARK  226  A    between atoms: _524  and  _525
REMARK  227  A    between atoms: _528  and  _530
REMARK  228  A    between atoms: _530  and  _531
REMARK  229  A    between atoms: _530  and  _533
REMARK  230  A    between atoms: _533  and  _534
REMARK  231  A    between atoms: _536  and  _538
REMARK  232  A    between atoms: _538  and  _539
REMARK  233  A    between atoms: _538  and  _541
REMARK  234  A    between atoms: _541  and  _542
REMARK  235  A    between atoms: _542  and  _543
REMARK  236  A    between atoms: _543  and  _544
REMARK  237  A    between atoms: _544  and  _545
REMARK                            x       y       z     vdW  Elec       q    Type
REMARK                         _______ _______ _______ _____ _____    ______ ____
ROOT
ATOM      1  O   HOH     1      26.554  -0.709  12.124  0.00  0.00    +0.000 OA
ENDROOT
TORSDOF 0
REMARK  Name = ../refined-set-2016/3ubd/3ubd_pocket.pdb
REMARK  237 active torsions:
REMARK  status: ('A' for Active; 'I' for Inactive)
REMARK    1  A    between atoms: _1  and  _5
REMARK    2  A    between atoms: _5  and  _6
REMARK    3  A    between atoms: _5  and  _8
REMARK    4  A    between atoms: _8  and  _9
REMARK    5  A    between atoms: _9  and  _10
REMARK    6  A    between atoms: _13  and  _15
REMARK    7  A    between atoms: _15  and  _16
REMARK    8  A    between atoms: _15  and  _18
REMARK    9  A    between atoms: _18  and  _19
REMARK   10  A    between atoms: _22  and  _24
REMARK   11  A    between atoms: _24  and  _25
REMARK   12  A    between atoms: _28  and  _30
REMARK   13  A    between atoms: _30  and  _31
REMARK   14  A    between atoms: _30  and  _33
REMARK   15  A    between atoms: _33  and  _34
REMARK   16  A    between atoms: _37  and  _39
REMARK   17  A    between atoms: _39  and  _40
REMARK   18  A    between atoms: _39  and  _42
REMARK   19  A    between atoms: _42  and  _43
REMARK   20  A    between atoms: _43  and  _44
REMARK   21  A    between atoms: _49  and  _51
REMARK   22  A    between atoms: _51  and  _52
REMARK   23  A    between atoms: _54  and  _56
REMARK   24  A    between atoms: _56  and  _57
REMARK   25  A    between atoms: _56  and  _59
REMARK   26  A    between atoms: _59  and  _60
REMARK   27  A    between atoms: _62  and  _64
REMARK   28  A    between atoms: _64  and  _65
REMARK   29  A    between atoms: _64  and  _67
REMARK   30  A    between atoms: _67  and  _68
REMARK   31  A    between atoms: _74  and  _76
REMARK   32  A    between atoms: _76  and  _77
REMARK   33  A    between atoms: _79  and  _81
REMARK   34  A    between atoms: _81  and  _82
REMARK   35  A    between atoms: _81  and  _84
REMARK   36  A    between atoms: _84  and  _85
REMARK   37  A    between atoms: _85  and  _86
REMARK   38  A    between atoms: _86  and  _87
REMARK   39  A    between atoms: _87  and  _88
REMARK   40  A    between atoms: _92  and  _94
REMARK   41  A    between atoms: _94  and  _95
REMARK   42  A    between atoms: _94  and  _97
REMARK   43  A    between atoms: _100  and  _102
REMARK   44  A    between atoms: _102  and  _103
REMARK   45  A    between atoms: _102  and  _105
REMARK   46  A    between atoms: _105  and  _106
REMARK   47  A    between atoms: _112  and  _114
REMARK   48  A    between atoms: _114  and  _115
REMARK   49  A    between atoms: _114  and  _117
REMARK   50  A    between atoms: _117  and  _118
REMARK   51  A    between atoms: _123  and  _124
REMARK   52  A    between atoms: _126  and  _128
REMARK   53  A    between atoms: _128  and  _129
REMARK   54  A    between atoms: _132  and  _134
REMARK   55  A    between atoms: _134  and  _135
REMARK   56  A    between atoms: _134  and  _137
REMARK   57  A    between atoms: _137  and  _138
REMARK   58  A    between atoms: _138  and  _139
REMARK   59  A    between atoms: _141  and  _143
REMARK   60  A    between atoms: _143  and  _144
REMARK   61  A    between atoms: _143  and  _146
REMARK   62  A    between atoms: _146  and  _147
REMARK   63  A    between atoms: _147  and  _148
REMARK   64  A    between atoms: _148  and  _149
REMARK   65  A    between atoms: _149  and  _150
REMARK   66  A    between atoms: _154  and  _156
REMARK   67  A    between atoms: _156  and  _157
REMARK   68  A    between atoms: _156  and  _159
REMARK   69  A    between atoms: _162  and  _164
REMARK   70  A    between atoms: _164  and  _165
REMARK   71  A    between atoms: _164  and  _167
REMARK   72  A    between atoms: _167  and  _168
REMARK   73  A    between atoms: _171  and  _173
REMARK   74  A    between atoms: _173  and  _174
REMARK   75  A    between atoms: _173  and  _176
REMARK   76  A    between atoms: _176  and  _177
REMARK   77  A    between atoms: _177  and  _178
REMARK   78  A    between atoms: _178  and  _179
REMARK   79  A    between atoms: _179  and  _180
REMARK   80  A    between atoms: _184  and  _186
REMARK   81  A    between atoms: _186  and  _187
REMARK   82  A    between atoms: _186  and  _189
REMARK   83  A    between atoms: _189  and  _190
REMARK   84  A    between atoms: _190  and  _191
REMARK   85  A    between atoms: _191  and  _192
REMARK   86  A    between atoms: _192  and  _193
REMARK   87  A    between atoms: _197  and  _199
REMARK   88  A    between atoms: _199  and  _200
REMARK   89  A    between atoms: _203  and  _205
REMARK   90  A    between atoms: _205  and  _206
REMARK   91  A    between atoms: _205  and  _208
REMARK   92  A    between atoms: _208  and  _209
REMARK   93  A    between atoms: _212  and  _214
REMARK   94  A    between atoms: _214  and  _215
REMARK   95  A    between atoms: _214  and  _217
REMARK   96  A    between atoms: _217  and  _218
REMARK   97  A    between atoms: _221  and  _223
REMARK   98  A    between atoms: _223  and  _224
REMARK   99  A    between atoms: _223  and  _226
REMARK  100  A    between atoms: _229  and  _231
REMARK  101  A    between atoms: _231  and  _232
REMARK  102  A    between atoms: _231  and  _234
REMARK  103  A    between atoms: _234  and  _235
REMARK  104  A    between atoms: _235  and  _236
REMARK  105  A    between atoms: _236  and  _237
REMARK  106  A    between atoms: _237  and  _238
REMARK  107  A    between atoms: _242  and  _244
REMARK  108  A    between atoms: _244  and  _245
REMARK  109  A    between atoms: _244  and  _247
REMARK  110  A    between atoms: _247  and  _248
REMARK  111  A    between atoms: _251  and  _253
REMARK  112  A    between atoms: _253  and  _254
REMARK  113  A    between atoms: _253  and  _256
REMARK  114  A    between atoms: _256  and  _257
REMARK  115  A    between atoms: _262  and  _264
REMARK  116  A    between atoms: _264  and  _265
REMARK  117  A    between atoms: _264  and  _267
REMARK  118  A    between atoms: _267  and  _268
REMARK  119  A    between atoms: _271  and  _273
REMARK  120  A    between atoms: _273  and  _274
REMARK  121  A    between atoms: _273  and  _276
REMARK  122  A    between atoms: _276  and  _277
REMARK  123  A    between atoms: _280  and  _282
REMARK  124  A    between atoms: _282  and  _283
REMARK  125  A    between atoms: _282  and  _285
REMARK  126  A    between atoms: _285  and  _286
REMARK  127  A    between atoms: _289  and  _291
REMARK  128  A    between atoms: _291  and  _292
REMARK  129  A    between atoms: _291  and  _294
REMARK  130  A    between atoms: _294  and  _295
REMARK  131  A    between atoms: _298  and  _300
REMARK  132  A    between atoms: _300  and  _301
REMARK  133  A    between atoms: _300  and  _303
REMARK  134  A    between atoms: _303  and  _304
REMARK  135  A    between atoms: _307  and  _309
REMARK  136  A    between atoms: _309  and  _310
REMARK  137  A    between atoms: _309  and  _312
REMARK  138  A    between atoms: _312  and  _313
REMARK  139  A    between atoms: _319  and  _321
REMARK  140  A    between atoms: _321  and  _322
REMARK  141  A    between atoms: _321  and  _324
REMARK  142  A    between atoms: _324  and  _325
REMARK  143  A    between atoms: _328  and  _330
REMARK  144  A    between atoms: _330  and  _331
REMARK  145  A    between atoms: _330  and  _333
REMARK  146  A    between atoms: _333  and  _334
REMARK  147  A    between atoms: _334  and  _335
REMARK  148  A    between atoms: _335  and  _336
REMARK  149  A    between atoms: _345  and  _347
REMARK  150  A    between atoms: _347  and  _348
REMARK  151  A    between atoms: _350  and  _352
REMARK  152  A    between atoms: _352  and  _353
REMARK  153  A    between atoms: _355  and  _357
REMARK  154  A    between atoms: _357  and  _358
REMARK  155  A    between atoms: _357  and  _360
REMARK  156  A    between atoms: _360  and  _361
REMARK  157  A    between atoms: _364  and  _366
REMARK  158  A    between atoms: _366  and  _367
REMARK  159  A    between atoms: _366  and  _369
REMARK  160  A    between atoms: _369  and  _370
REMARK  161  A    between atoms: _373  and  _375
REMARK  162  A    between atoms: _375  and  _376
REMARK  163  A    between atoms: _375  and  _378
REMARK  164  A    between atoms: _378  and  _379
REMARK  165  A    between atoms: _385  and  _387
REMARK  166  A    between atoms: _387  and  _388
REMARK  167  A    between atoms: _387  and  _390
REMARK  168  A    between atoms: _390  and  _391
REMARK  169  A    between atoms: _394  and  _396
REMARK  170  A    between atoms: _396  and  _397
REMARK  171  A    between atoms: _396  and  _399
REMARK  172  A    between atoms: _399  and  _400
REMARK  173  A    between atoms: _400  and  _401
REMARK  174  A    between atoms: _401  and  _402
REMARK  175  A    between atoms: _402  and  _403
REMARK  176  A    between atoms: _408  and  _409
REMARK  177  A    between atoms: _414  and  _416
REMARK  178  A    between atoms: _416  and  _417
REMARK  179  A    between atoms: _416  and  _419
REMARK  180  A    between atoms: _419  and  _420
REMARK  181  A    between atoms: _420  and  _421
REMARK  182  A    between atoms: _424  and  _426
REMARK  183  A    between atoms: _426  and  _427
REMARK  184  A    between atoms: _426  and  _429
REMARK  185  A    between atoms: _429  and  _430
REMARK  186  A    between atoms: _435  and  _437
REMARK  187  A    between atoms: _437  and  _438
REMARK  188  A    between atoms: _437  and  _440
REMARK  189  A    between atoms: _440  and  _441
REMARK  190  A    between atoms: _444  and  _446
REMARK  191  A    between atoms: _446  and  _447
REMARK  192  A    between atoms: _446  and  _449
REMARK  193  A    between atoms: _449  and  _450
REMARK  194  A    between atoms: _453  and  _455
REMARK  195  A    between atoms: _455  and  _456
REMARK  196  A    between atoms: _455  and  _458
REMARK  197  A    between atoms: _458  and  _459
REMARK  198  A    between atoms: _462  and  _464
REMARK  199  A    between atoms: _464  and  _465
REMARK  200  A    between atoms: _464  and  _467
REMARK  201  A    between atoms: _467  and  _468
REMARK  202  A    between atoms: _468  and  _469
REMARK  203  A    between atoms: _469  and  _470
REMARK  204  A    between atoms: _470  and  _471
REMARK  205  A    between atoms: _475  and  _477
REMARK  206  A    between atoms: _477  and  _478
REMARK  207  A    between atoms: _477  and  _480
REMARK  208  A    between atoms: _480  and  _481
REMARK  209  A    between atoms: _484  and  _486
REMARK  210  A    between atoms: _486  and  _487
REMARK  211  A    between atoms: _486  and  _489
REMARK  212  A    between atoms: _489  and  _490
REMARK  213  A    between atoms: _493  and  _495
REMARK  214  A    between atoms: _495  and  _496
REMARK  215  A    between atoms: _495  and  _498
REMARK  216  A    between atoms: _498  and  _499
REMARK  217  A    between atoms: _502  and  _504
REMARK  218  A    between atoms: _504  and  _505
REMARK  219  A    between atoms: _504  and  _507
REMARK  220  A    between atoms: _507  and  _508
REMARK  221  A    between atoms: _514  and  _516
REMARK  222  A    between atoms: _516  and  _517
REMARK  223  A    between atoms: _519  and  _521
REMARK  224  A    between atoms: _521  and  _522
REMARK  225  A    between atoms: _521  and  _524
REMARK  226  A    between atoms: _524  and  _525
REMARK  227  A    between atoms: _528  and  _530
REMARK  228  A    between atoms: _530  and  _531
REMARK  229  A    between atoms: _530  and  _533
REMARK  230  A    between atoms: _533  and  _534
REMARK  231  A    between atoms: _536  and  _538
REMARK  232  A    between atoms: _538  and  _539
REMARK  233  A    between atoms: _538  and  _541
REMARK  234  A    between atoms: _541  and  _542
REMARK  235  A    between atoms: _542  and  _543
REMARK  236  A    between atoms: _543  and  _544
REMARK  237  A    between atoms: _544  and  _545
REMARK                            x       y       z     vdW  Elec       q    Type
REMARK                         _______ _______ _______ _____ _____    ______ ____
ROOT
ATOM      1  O   HOH     1      36.983  -3.326   6.818  0.00  0.00    +0.000 OA
ENDROOT
TORSDOF 0
REMARK  Name = ../refined-set-2016/3ubd/3ubd_pocket.pdb
REMARK  237 active torsions:
REMARK  status: ('A' for Active; 'I' for Inactive)
REMARK    1  A    between atoms: _1  and  _5
REMARK    2  A    between atoms: _5  and  _6
REMARK    3  A    between atoms: _5  and  _8
REMARK    4  A    between atoms: _8  and  _9
REMARK    5  A    between atoms: _9  and  _10
REMARK    6  A    between atoms: _13  and  _15
REMARK    7  A    between atoms: _15  and  _16
REMARK    8  A    between atoms: _15  and  _18
REMARK    9  A    between atoms: _18  and  _19
REMARK   10  A    between atoms: _22  and  _24
REMARK   11  A    between atoms: _24  and  _25
REMARK   12  A    between atoms: _28  and  _30
REMARK   13  A    between atoms: _30  and  _31
REMARK   14  A    between atoms: _30  and  _33
REMARK   15  A    between atoms: _33  and  _34
REMARK   16  A    between atoms: _37  and  _39
REMARK   17  A    between atoms: _39  and  _40
REMARK   18  A    between atoms: _39  and  _42
REMARK   19  A    between atoms: _42  and  _43
REMARK   20  A    between atoms: _43  and  _44
REMARK   21  A    between atoms: _49  and  _51
REMARK   22  A    between atoms: _51  and  _52
REMARK   23  A    between atoms: _54  and  _56
REMARK   24  A    between atoms: _56  and  _57
REMARK   25  A    between atoms: _56  and  _59
REMARK   26  A    between atoms: _59  and  _60
REMARK   27  A    between atoms: _62  and  _64
REMARK   28  A    between atoms: _64  and  _65
REMARK   29  A    between atoms: _64  and  _67
REMARK   30  A    between atoms: _67  and  _68
REMARK   31  A    between atoms: _74  and  _76
REMARK   32  A    between atoms: _76  and  _77
REMARK   33  A    between atoms: _79  and  _81
REMARK   34  A    between atoms: _81  and  _82
REMARK   35  A    between atoms: _81  and  _84
REMARK   36  A    between atoms: _84  and  _85
REMARK   37  A    between atoms: _85  and  _86
REMARK   38  A    between atoms: _86  and  _87
REMARK   39  A    between atoms: _87  and  _88
REMARK   40  A    between atoms: _92  and  _94
REMARK   41  A    between atoms: _94  and  _95
REMARK   42  A    between atoms: _94  and  _97
REMARK   43  A    between atoms: _100  and  _102
REMARK   44  A    between atoms: _102  and  _103
REMARK   45  A    between atoms: _102  and  _105
REMARK   46  A    between atoms: _105  and  _106
REMARK   47  A    between atoms: _112  and  _114
REMARK   48  A    between atoms: _114  and  _115
REMARK   49  A    between atoms: _114  and  _117
REMARK   50  A    between atoms: _117  and  _118
REMARK   51  A    between atoms: _123  and  _124
REMARK   52  A    between atoms: _126  and  _128
REMARK   53  A    between atoms: _128  and  _129
REMARK   54  A    between atoms: _132  and  _134
REMARK   55  A    between atoms: _134  and  _135
REMARK   56  A    between atoms: _134  and  _137
REMARK   57  A    between atoms: _137  and  _138
REMARK   58  A    between atoms: _138  and  _139
REMARK   59  A    between atoms: _141  and  _143
REMARK   60  A    between atoms: _143  and  _144
REMARK   61  A    between atoms: _143  and  _146
REMARK   62  A    between atoms: _146  and  _147
REMARK   63  A    between atoms: _147  and  _148
REMARK   64  A    between atoms: _148  and  _149
REMARK   65  A    between atoms: _149  and  _150
REMARK   66  A    between atoms: _154  and  _156
REMARK   67  A    between atoms: _156  and  _157
REMARK   68  A    between atoms: _156  and  _159
REMARK   69  A    between atoms: _162  and  _164
REMARK   70  A    between atoms: _164  and  _165
REMARK   71  A    between atoms: _164  and  _167
REMARK   72  A    between atoms: _167  and  _168
REMARK   73  A    between atoms: _171  and  _173
REMARK   74  A    between atoms: _173  and  _174
REMARK   75  A    between atoms: _173  and  _176
REMARK   76  A    between atoms: _176  and  _177
REMARK   77  A    between atoms: _177  and  _178
REMARK   78  A    between atoms: _178  and  _179
REMARK   79  A    between atoms: _179  and  _180
REMARK   80  A    between atoms: _184  and  _186
REMARK   81  A    between atoms: _186  and  _187
REMARK   82  A    between atoms: _186  and  _189
REMARK   83  A    between atoms: _189  and  _190
REMARK   84  A    between atoms: _190  and  _191
REMARK   85  A    between atoms: _191  and  _192
REMARK   86  A    between atoms: _192  and  _193
REMARK   87  A    between atoms: _197  and  _199
REMARK   88  A    between atoms: _199  and  _200
REMARK   89  A    between atoms: _203  and  _205
REMARK   90  A    between atoms: _205  and  _206
REMARK   91  A    between atoms: _205  and  _208
REMARK   92  A    between atoms: _208  and  _209
REMARK   93  A    between atoms: _212  and  _214
REMARK   94  A    between atoms: _214  and  _215
REMARK   95  A    between atoms: _214  and  _217
REMARK   96  A    between atoms: _217  and  _218
REMARK   97  A    between atoms: _221  and  _223
REMARK   98  A    between atoms: _223  and  _224
REMARK   99  A    between atoms: _223  and  _226
REMARK  100  A    between atoms: _229  and  _231
REMARK  101  A    between atoms: _231  and  _232
REMARK  102  A    between atoms: _231  and  _234
REMARK  103  A    between atoms: _234  and  _235
REMARK  104  A    between atoms: _235  and  _236
REMARK  105  A    between atoms: _236  and  _237
REMARK  106  A    between atoms: _237  and  _238
REMARK  107  A    between atoms: _242  and  _244
REMARK  108  A    between atoms: _244  and  _245
REMARK  109  A    between atoms: _244  and  _247
REMARK  110  A    between atoms: _247  and  _248
REMARK  111  A    between atoms: _251  and  _253
REMARK  112  A    between atoms: _253  and  _254
REMARK  113  A    between atoms: _253  and  _256
REMARK  114  A    between atoms: _256  and  _257
REMARK  115  A    between atoms: _262  and  _264
REMARK  116  A    between atoms: _264  and  _265
REMARK  117  A    between atoms: _264  and  _267
REMARK  118  A    between atoms: _267  and  _268
REMARK  119  A    between atoms: _271  and  _273
REMARK  120  A    between atoms: _273  and  _274
REMARK  121  A    between atoms: _273  and  _276
REMARK  122  A    between atoms: _276  and  _277
REMARK  123  A    between atoms: _280  and  _282
REMARK  124  A    between atoms: _282  and  _283
REMARK  125  A    between atoms: _282  and  _285
REMARK  126  A    between atoms: _285  and  _286
REMARK  127  A    between atoms: _289  and  _291
REMARK  128  A    between atoms: _291  and  _292
REMARK  129  A    between atoms: _291  and  _294
REMARK  130  A    between atoms: _294  and  _295
REMARK  131  A    between atoms: _298  and  _300
REMARK  132  A    between atoms: _300  and  _301
REMARK  133  A    between atoms: _300  and  _303
REMARK  134  A    between atoms: _303  and  _304
REMARK  135  A    between atoms: _307  and  _309
REMARK  136  A    between atoms: _309  and  _310
REMARK  137  A    between atoms: _309  and  _312
REMARK  138  A    between atoms: _312  and  _313
REMARK  139  A    between atoms: _319  and  _321
REMARK  140  A    between atoms: _321  and  _322
REMARK  141  A    between atoms: _321  and  _324
REMARK  142  A    between atoms: _324  and  _325
REMARK  143  A    between atoms: _328  and  _330
REMARK  144  A    between atoms: _330  and  _331
REMARK  145  A    between atoms: _330  and  _333
REMARK  146  A    between atoms: _333  and  _334
REMARK  147  A    between atoms: _334  and  _335
REMARK  148  A    between atoms: _335  and  _336
REMARK  149  A    between atoms: _345  and  _347
REMARK  150  A    between atoms: _347  and  _348
REMARK  151  A    between atoms: _350  and  _352
REMARK  152  A    between atoms: _352  and  _353
REMARK  153  A    between atoms: _355  and  _357
REMARK  154  A    between atoms: _357  and  _358
REMARK  155  A    between atoms: _357  and  _360
REMARK  156  A    between atoms: _360  and  _361
REMARK  157  A    between atoms: _364  and  _366
REMARK  158  A    between atoms: _366  and  _367
REMARK  159  A    between atoms: _366  and  _369
REMARK  160  A    between atoms: _369  and  _370
REMARK  161  A    between atoms: _373  and  _375
REMARK  162  A    between atoms: _375  and  _376
REMARK  163  A    between atoms: _375  and  _378
REMARK  164  A    between atoms: _378  and  _379
REMARK  165  A    between atoms: _385  and  _387
REMARK  166  A    between atoms: _387  and  _388
REMARK  167  A    between atoms: _387  and  _390
REMARK  168  A    between atoms: _390  and  _391
REMARK  169  A    between atoms: _394  and  _396
REMARK  170  A    between atoms: _396  and  _397
REMARK  171  A    between atoms: _396  and  _399
REMARK  172  A    between atoms: _399  and  _400
REMARK  173  A    between atoms: _400  and  _401
REMARK  174  A    between atoms: _401  and  _402
REMARK  175  A    between atoms: _402  and  _403
REMARK  176  A    between atoms: _408  and  _409
REMARK  177  A    between atoms: _414  and  _416
REMARK  178  A    between atoms: _416  and  _417
REMARK  179  A    between atoms: _416  and  _419
REMARK  180  A    between atoms: _419  and  _420
REMARK  181  A    between atoms: _420  and  _421
REMARK  182  A    between atoms: _424  and  _426
REMARK  183  A    between atoms: _426  and  _427
REMARK  184  A    between atoms: _426  and  _429
REMARK  185  A    between atoms: _429  and  _430
REMARK  186  A    between atoms: _435  and  _437
REMARK  187  A    between atoms: _437  and  _438
REMARK  188  A    between atoms: _437  and  _440
REMARK  189  A    between atoms: _440  and  _441
REMARK  190  A    between atoms: _444  and  _446
REMARK  191  A    between atoms: _446  and  _447
REMARK  192  A    between atoms: _446  and  _449
REMARK  193  A    between atoms: _449  and  _450
REMARK  194  A    between atoms: _453  and  _455
REMARK  195  A    between atoms: _455  and  _456
REMARK  196  A    between atoms: _455  and  _458
REMARK  197  A    between atoms: _458  and  _459
REMARK  198  A    between atoms: _462  and  _464
REMARK  199  A    between atoms: _464  and  _465
REMARK  200  A    between atoms: _464  and  _467
REMARK  201  A    between atoms: _467  and  _468
REMARK  202  A    between atoms: _468  and  _469
REMARK  203  A    between atoms: _469  and  _470
REMARK  204  A    between atoms: _470  and  _471
REMARK  205  A    between atoms: _475  and  _477
REMARK  206  A    between atoms: _477  and  _478
REMARK  207  A    between atoms: _477  and  _480
REMARK  208  A    between atoms: _480  and  _481
REMARK  209  A    between atoms: _484  and  _486
REMARK  210  A    between atoms: _486  and  _487
REMARK  211  A    between atoms: _486  and  _489
REMARK  212  A    between atoms: _489  and  _490
REMARK  213  A    between atoms: _493  and  _495
REMARK  214  A    between atoms: _495  and  _496
REMARK  215  A    between atoms: _495  and  _498
REMARK  216  A    between atoms: _498  and  _499
REMARK  217  A    between atoms: _502  and  _504
REMARK  218  A    between atoms: _504  and  _505
REMARK  219  A    between atoms: _504  and  _507
REMARK  220  A    between atoms: _507  and  _508
REMARK  221  A    between atoms: _514  and  _516
REMARK  222  A    between atoms: _516  and  _517
REMARK  223  A    between atoms: _519  and  _521
REMARK  224  A    between atoms: _521  and  _522
REMARK  225  A    between atoms: _521  and  _524
REMARK  226  A    between atoms: _524  and  _525
REMARK  227  A    between atoms: _528  and  _530
REMARK  228  A    between atoms: _530  and  _531
REMARK  229  A    between atoms: _530  and  _533
REMARK  230  A    between atoms: _533  and  _534
REMARK  231  A    between atoms: _536  and  _538
REMARK  232  A    between atoms: _538  and  _539
REMARK  233  A    between atoms: _538  and  _541
REMARK  234  A    between atoms: _541  and  _542
REMARK  235  A    between atoms: _542  and  _543
REMARK  236  A    between atoms: _543  and  _544
REMARK  237  A    between atoms: _544  and  _545
REMARK                            x       y       z     vdW  Elec       q    Type
REMARK                         _______ _______ _______ _____ _____    ______ ____
ROOT
ATOM      1  O   HOH     1      39.061   8.955  -0.015  0.00  0.00    +0.000 OA
ENDROOT
TORSDOF 0
REMARK  Name = ../refined-set-2016/3ubd/3ubd_pocket.pdb
REMARK  237 active torsions:
REMARK  status: ('A' for Active; 'I' for Inactive)
REMARK    1  A    between atoms: _1  and  _5
REMARK    2  A    between atoms: _5  and  _6
REMARK    3  A    between atoms: _5  and  _8
REMARK    4  A    between atoms: _8  and  _9
REMARK    5  A    between atoms: _9  and  _10
REMARK    6  A    between atoms: _13  and  _15
REMARK    7  A    between atoms: _15  and  _16
REMARK    8  A    between atoms: _15  and  _18
REMARK    9  A    between atoms: _18  and  _19
REMARK   10  A    between atoms: _22  and  _24
REMARK   11  A    between atoms: _24  and  _25
REMARK   12  A    between atoms: _28  and  _30
REMARK   13  A    between atoms: _30  and  _31
REMARK   14  A    between atoms: _30  and  _33
REMARK   15  A    between atoms: _33  and  _34
REMARK   16  A    between atoms: _37  and  _39
REMARK   17  A    between atoms: _39  and  _40
REMARK   18  A    between atoms: _39  and  _42
REMARK   19  A    between atoms: _42  and  _43
REMARK   20  A    between atoms: _43  and  _44
REMARK   21  A    between atoms: _49  and  _51
REMARK   22  A    between atoms: _51  and  _52
REMARK   23  A    between atoms: _54  and  _56
REMARK   24  A    between atoms: _56  and  _57
REMARK   25  A    between atoms: _56  and  _59
REMARK   26  A    between atoms: _59  and  _60
REMARK   27  A    between atoms: _62  and  _64
REMARK   28  A    between atoms: _64  and  _65
REMARK   29  A    between atoms: _64  and  _67
REMARK   30  A    between atoms: _67  and  _68
REMARK   31  A    between atoms: _74  and  _76
REMARK   32  A    between atoms: _76  and  _77
REMARK   33  A    between atoms: _79  and  _81
REMARK   34  A    between atoms: _81  and  _82
REMARK   35  A    between atoms: _81  and  _84
REMARK   36  A    between atoms: _84  and  _85
REMARK   37  A    between atoms: _85  and  _86
REMARK   38  A    between atoms: _86  and  _87
REMARK   39  A    between atoms: _87  and  _88
REMARK   40  A    between atoms: _92  and  _94
REMARK   41  A    between atoms: _94  and  _95
REMARK   42  A    between atoms: _94  and  _97
REMARK   43  A    between atoms: _100  and  _102
REMARK   44  A    between atoms: _102  and  _103
REMARK   45  A    between atoms: _102  and  _105
REMARK   46  A    between atoms: _105  and  _106
REMARK   47  A    between atoms: _112  and  _114
REMARK   48  A    between atoms: _114  and  _115
REMARK   49  A    between atoms: _114  and  _117
REMARK   50  A    between atoms: _117  and  _118
REMARK   51  A    between atoms: _123  and  _124
REMARK   52  A    between atoms: _126  and  _128
REMARK   53  A    between atoms: _128  and  _129
REMARK   54  A    between atoms: _132  and  _134
REMARK   55  A    between atoms: _134  and  _135
REMARK   56  A    between atoms: _134  and  _137
REMARK   57  A    between atoms: _137  and  _138
REMARK   58  A    between atoms: _138  and  _139
REMARK   59  A    between atoms: _141  and  _143
REMARK   60  A    between atoms: _143  and  _144
REMARK   61  A    between atoms: _143  and  _146
REMARK   62  A    between atoms: _146  and  _147
REMARK   63  A    between atoms: _147  and  _148
REMARK   64  A    between atoms: _148  and  _149
REMARK   65  A    between atoms: _149  and  _150
REMARK   66  A    between atoms: _154  and  _156
REMARK   67  A    between atoms: _156  and  _157
REMARK   68  A    between atoms: _156  and  _159
REMARK   69  A    between atoms: _162  and  _164
REMARK   70  A    between atoms: _164  and  _165
REMARK   71  A    between atoms: _164  and  _167
REMARK   72  A    between atoms: _167  and  _168
REMARK   73  A    between atoms: _171  and  _173
REMARK   74  A    between atoms: _173  and  _174
REMARK   75  A    between atoms: _173  and  _176
REMARK   76  A    between atoms: _176  and  _177
REMARK   77  A    between atoms: _177  and  _178
REMARK   78  A    between atoms: _178  and  _179
REMARK   79  A    between atoms: _179  and  _180
REMARK   80  A    between atoms: _184  and  _186
REMARK   81  A    between atoms: _186  and  _187
REMARK   82  A    between atoms: _186  and  _189
REMARK   83  A    between atoms: _189  and  _190
REMARK   84  A    between atoms: _190  and  _191
REMARK   85  A    between atoms: _191  and  _192
REMARK   86  A    between atoms: _192  and  _193
REMARK   87  A    between atoms: _197  and  _199
REMARK   88  A    between atoms: _199  and  _200
REMARK   89  A    between atoms: _203  and  _205
REMARK   90  A    between atoms: _205  and  _206
REMARK   91  A    between atoms: _205  and  _208
REMARK   92  A    between atoms: _208  and  _209
REMARK   93  A    between atoms: _212  and  _214
REMARK   94  A    between atoms: _214  and  _215
REMARK   95  A    between atoms: _214  and  _217
REMARK   96  A    between atoms: _217  and  _218
REMARK   97  A    between atoms: _221  and  _223
REMARK   98  A    between atoms: _223  and  _224
REMARK   99  A    between atoms: _223  and  _226
REMARK  100  A    between atoms: _229  and  _231
REMARK  101  A    between atoms: _231  and  _232
REMARK  102  A    between atoms: _231  and  _234
REMARK  103  A    between atoms: _234  and  _235
REMARK  104  A    between atoms: _235  and  _236
REMARK  105  A    between atoms: _236  and  _237
REMARK  106  A    between atoms: _237  and  _238
REMARK  107  A    between atoms: _242  and  _244
REMARK  108  A    between atoms: _244  and  _245
REMARK  109  A    between atoms: _244  and  _247
REMARK  110  A    between atoms: _247  and  _248
REMARK  111  A    between atoms: _251  and  _253
REMARK  112  A    between atoms: _253  and  _254
REMARK  113  A    between atoms: _253  and  _256
REMARK  114  A    between atoms: _256  and  _257
REMARK  115  A    between atoms: _262  and  _264
REMARK  116  A    between atoms: _264  and  _265
REMARK  117  A    between atoms: _264  and  _267
REMARK  118  A    between atoms: _267  and  _268
REMARK  119  A    between atoms: _271  and  _273
REMARK  120  A    between atoms: _273  and  _274
REMARK  121  A    between atoms: _273  and  _276
REMARK  122  A    between atoms: _276  and  _277
REMARK  123  A    between atoms: _280  and  _282
REMARK  124  A    between atoms: _282  and  _283
REMARK  125  A    between atoms: _282  and  _285
REMARK  126  A    between atoms: _285  and  _286
REMARK  127  A    between atoms: _289  and  _291
REMARK  128  A    between atoms: _291  and  _292
REMARK  129  A    between atoms: _291  and  _294
REMARK  130  A    between atoms: _294  and  _295
REMARK  131  A    between atoms: _298  and  _300
REMARK  132  A    between atoms: _300  and  _301
REMARK  133  A    between atoms: _300  and  _303
REMARK  134  A    between atoms: _303  and  _304
REMARK  135  A    between atoms: _307  and  _309
REMARK  136  A    between atoms: _309  and  _310
REMARK  137  A    between atoms: _309  and  _312
REMARK  138  A    between atoms: _312  and  _313
REMARK  139  A    between atoms: _319  and  _321
REMARK  140  A    between atoms: _321  and  _322
REMARK  141  A    between atoms: _321  and  _324
REMARK  142  A    between atoms: _324  and  _325
REMARK  143  A    between atoms: _328  and  _330
REMARK  144  A    between atoms: _330  and  _331
REMARK  145  A    between atoms: _330  and  _333
REMARK  146  A    between atoms: _333  and  _334
REMARK  147  A    between atoms: _334  and  _335
REMARK  148  A    between atoms: _335  and  _336
REMARK  149  A    between atoms: _345  and  _347
REMARK  150  A    between atoms: _347  and  _348
REMARK  151  A    between atoms: _350  and  _352
REMARK  152  A    between atoms: _352  and  _353
REMARK  153  A    between atoms: _355  and  _357
REMARK  154  A    between atoms: _357  and  _358
REMARK  155  A    between atoms: _357  and  _360
REMARK  156  A    between atoms: _360  and  _361
REMARK  157  A    between atoms: _364  and  _366
REMARK  158  A    between atoms: _366  and  _367
REMARK  159  A    between atoms: _366  and  _369
REMARK  160  A    between atoms: _369  and  _370
REMARK  161  A    between atoms: _373  and  _375
REMARK  162  A    between atoms: _375  and  _376
REMARK  163  A    between atoms: _375  and  _378
REMARK  164  A    between atoms: _378  and  _379
REMARK  165  A    between atoms: _385  and  _387
REMARK  166  A    between atoms: _387  and  _388
REMARK  167  A    between atoms: _387  and  _390
REMARK  168  A    between atoms: _390  and  _391
REMARK  169  A    between atoms: _394  and  _396
REMARK  170  A    between atoms: _396  and  _397
REMARK  171  A    between atoms: _396  and  _399
REMARK  172  A    between atoms: _399  and  _400
REMARK  173  A    between atoms: _400  and  _401
REMARK  174  A    between atoms: _401  and  _402
REMARK  175  A    between atoms: _402  and  _403
REMARK  176  A    between atoms: _408  and  _409
REMARK  177  A    between atoms: _414  and  _416
REMARK  178  A    between atoms: _416  and  _417
REMARK  179  A    between atoms: _416  and  _419
REMARK  180  A    between atoms: _419  and  _420
REMARK  181  A    between atoms: _420  and  _421
REMARK  182  A    between atoms: _424  and  _426
REMARK  183  A    between atoms: _426  and  _427
REMARK  184  A    between atoms: _426  and  _429
REMARK  185  A    between atoms: _429  and  _430
REMARK  186  A    between atoms: _435  and  _437
REMARK  187  A    between atoms: _437  and  _438
REMARK  188  A    between atoms: _437  and  _440
REMARK  189  A    between atoms: _440  and  _441
REMARK  190  A    between atoms: _444  and  _446
REMARK  191  A    between atoms: _446  and  _447
REMARK  192  A    between atoms: _446  and  _449
REMARK  193  A    between atoms: _449  and  _450
REMARK  194  A    between atoms: _453  and  _455
REMARK  195  A    between atoms: _455  and  _456
REMARK  196  A    between atoms: _455  and  _458
REMARK  197  A    between atoms: _458  and  _459
REMARK  198  A    between atoms: _462  and  _464
REMARK  199  A    between atoms: _464  and  _465
REMARK  200  A    between atoms: _464  and  _467
REMARK  201  A    between atoms: _467  and  _468
REMARK  202  A    between atoms: _468  and  _469
REMARK  203  A    between atoms: _469  and  _470
REMARK  204  A    between atoms: _470  and  _471
REMARK  205  A    between atoms: _475  and  _477
REMARK  206  A    between atoms: _477  and  _478
REMARK  207  A    between atoms: _477  and  _480
REMARK  208  A    between atoms: _480  and  _481
REMARK  209  A    between atoms: _484  and  _486
REMARK  210  A    between atoms: _486  and  _487
REMARK  211  A    between atoms: _486  and  _489
REMARK  212  A    between atoms: _489  and  _490
REMARK  213  A    between atoms: _493  and  _495
REMARK  214  A    between atoms: _495  and  _496
REMARK  215  A    between atoms: _495  and  _498
REMARK  216  A    between atoms: _498  and  _499
REMARK  217  A    between atoms: _502  and  _504
REMARK  218  A    between atoms: _504  and  _505
REMARK  219  A    between atoms: _504  and  _507
REMARK  220  A    between atoms: _507  and  _508
REMARK  221  A    between atoms: _514  and  _516
REMARK  222  A    between atoms: _516  and  _517
REMARK  223  A    between atoms: _519  and  _521
REMARK  224  A    between atoms: _521  and  _522
REMARK  225  A    between atoms: _521  and  _524
REMARK  226  A    between atoms: _524  and  _525
REMARK  227  A    between atoms: _528  and  _530
REMARK  228  A    between atoms: _530  and  _531
REMARK  229  A    between atoms: _530  and  _533
REMARK  230  A    between atoms: _533  and  _534
REMARK  231  A    between atoms: _536  and  _538
REMARK  232  A    between atoms: _538  and  _539
REMARK  233  A    between atoms: _538  and  _541
REMARK  234  A    between atoms: _541  and  _542
REMARK  235  A    between atoms: _542  and  _543
REMARK  236  A    between atoms: _543  and  _544
REMARK  237  A    between atoms: _544  and  _545
REMARK                            x       y       z     vdW  Elec       q    Type
REMARK                         _______ _______ _______ _____ _____    ______ ____
ROOT
ATOM      1  O   HOH     1      24.291  -2.238   6.903  0.00  0.00    +0.000 OA
ENDROOT
TORSDOF 0
REMARK  Name = ../refined-set-2016/3ubd/3ubd_pocket.pdb
REMARK  237 active torsions:
REMARK  status: ('A' for Active; 'I' for Inactive)
REMARK    1  A    between atoms: _1  and  _5
REMARK    2  A    between atoms: _5  and  _6
REMARK    3  A    between atoms: _5  and  _8
REMARK    4  A    between atoms: _8  and  _9
REMARK    5  A    between atoms: _9  and  _10
REMARK    6  A    between atoms: _13  and  _15
REMARK    7  A    between atoms: _15  and  _16
REMARK    8  A    between atoms: _15  and  _18
REMARK    9  A    between atoms: _18  and  _19
REMARK   10  A    between atoms: _22  and  _24
REMARK   11  A    between atoms: _24  and  _25
REMARK   12  A    between atoms: _28  and  _30
REMARK   13  A    between atoms: _30  and  _31
REMARK   14  A    between atoms: _30  and  _33
REMARK   15  A    between atoms: _33  and  _34
REMARK   16  A    between atoms: _37  and  _39
REMARK   17  A    between atoms: _39  and  _40
REMARK   18  A    between atoms: _39  and  _42
REMARK   19  A    between atoms: _42  and  _43
REMARK   20  A    between atoms: _43  and  _44
REMARK   21  A    between atoms: _49  and  _51
REMARK   22  A    between atoms: _51  and  _52
REMARK   23  A    between atoms: _54  and  _56
REMARK   24  A    between atoms: _56  and  _57
REMARK   25  A    between atoms: _56  and  _59
REMARK   26  A    between atoms: _59  and  _60
REMARK   27  A    between atoms: _62  and  _64
REMARK   28  A    between atoms: _64  and  _65
REMARK   29  A    between atoms: _64  and  _67
REMARK   30  A    between atoms: _67  and  _68
REMARK   31  A    between atoms: _74  and  _76
REMARK   32  A    between atoms: _76  and  _77
REMARK   33  A    between atoms: _79  and  _81
REMARK   34  A    between atoms: _81  and  _82
REMARK   35  A    between atoms: _81  and  _84
REMARK   36  A    between atoms: _84  and  _85
REMARK   37  A    between atoms: _85  and  _86
REMARK   38  A    between atoms: _86  and  _87
REMARK   39  A    between atoms: _87  and  _88
REMARK   40  A    between atoms: _92  and  _94
REMARK   41  A    between atoms: _94  and  _95
REMARK   42  A    between atoms: _94  and  _97
REMARK   43  A    between atoms: _100  and  _102
REMARK   44  A    between atoms: _102  and  _103
REMARK   45  A    between atoms: _102  and  _105
REMARK   46  A    between atoms: _105  and  _106
REMARK   47  A    between atoms: _112  and  _114
REMARK   48  A    between atoms: _114  and  _115
REMARK   49  A    between atoms: _114  and  _117
REMARK   50  A    between atoms: _117  and  _118
REMARK   51  A    between atoms: _123  and  _124
REMARK   52  A    between atoms: _126  and  _128
REMARK   53  A    between atoms: _128  and  _129
REMARK   54  A    between atoms: _132  and  _134
REMARK   55  A    between atoms: _134  and  _135
REMARK   56  A    between atoms: _134  and  _137
REMARK   57  A    between atoms: _137  and  _138
REMARK   58  A    between atoms: _138  and  _139
REMARK   59  A    between atoms: _141  and  _143
REMARK   60  A    between atoms: _143  and  _144
REMARK   61  A    between atoms: _143  and  _146
REMARK   62  A    between atoms: _146  and  _147
REMARK   63  A    between atoms: _147  and  _148
REMARK   64  A    between atoms: _148  and  _149
REMARK   65  A    between atoms: _149  and  _150
REMARK   66  A    between atoms: _154  and  _156
REMARK   67  A    between atoms: _156  and  _157
REMARK   68  A    between atoms: _156  and  _159
REMARK   69  A    between atoms: _162  and  _164
REMARK   70  A    between atoms: _164  and  _165
REMARK   71  A    between atoms: _164  and  _167
REMARK   72  A    between atoms: _167  and  _168
REMARK   73  A    between atoms: _171  and  _173
REMARK   74  A    between atoms: _173  and  _174
REMARK   75  A    between atoms: _173  and  _176
REMARK   76  A    between atoms: _176  and  _177
REMARK   77  A    between atoms: _177  and  _178
REMARK   78  A    between atoms: _178  and  _179
REMARK   79  A    between atoms: _179  and  _180
REMARK   80  A    between atoms: _184  and  _186
REMARK   81  A    between atoms: _186  and  _187
REMARK   82  A    between atoms: _186  and  _189
REMARK   83  A    between atoms: _189  and  _190
REMARK   84  A    between atoms: _190  and  _191
REMARK   85  A    between atoms: _191  and  _192
REMARK   86  A    between atoms: _192  and  _193
REMARK   87  A    between atoms: _197  and  _199
REMARK   88  A    between atoms: _199  and  _200
REMARK   89  A    between atoms: _203  and  _205
REMARK   90  A    between atoms: _205  and  _206
REMARK   91  A    between atoms: _205  and  _208
REMARK   92  A    between atoms: _208  and  _209
REMARK   93  A    between atoms: _212  and  _214
REMARK   94  A    between atoms: _214  and  _215
REMARK   95  A    between atoms: _214  and  _217
REMARK   96  A    between atoms: _217  and  _218
REMARK   97  A    between atoms: _221  and  _223
REMARK   98  A    between atoms: _223  and  _224
REMARK   99  A    between atoms: _223  and  _226
REMARK  100  A    between atoms: _229  and  _231
REMARK  101  A    between atoms: _231  and  _232
REMARK  102  A    between atoms: _231  and  _234
REMARK  103  A    between atoms: _234  and  _235
REMARK  104  A    between atoms: _235  and  _236
REMARK  105  A    between atoms: _236  and  _237
REMARK  106  A    between atoms: _237  and  _238
REMARK  107  A    between atoms: _242  and  _244
REMARK  108  A    between atoms: _244  and  _245
REMARK  109  A    between atoms: _244  and  _247
REMARK  110  A    between atoms: _247  and  _248
REMARK  111  A    between atoms: _251  and  _253
REMARK  112  A    between atoms: _253  and  _254
REMARK  113  A    between atoms: _253  and  _256
REMARK  114  A    between atoms: _256  and  _257
REMARK  115  A    between atoms: _262  and  _264
REMARK  116  A    between atoms: _264  and  _265
REMARK  117  A    between atoms: _264  and  _267
REMARK  118  A    between atoms: _267  and  _268
REMARK  119  A    between atoms: _271  and  _273
REMARK  120  A    between atoms: _273  and  _274
REMARK  121  A    between atoms: _273  and  _276
REMARK  122  A    between atoms: _276  and  _277
REMARK  123  A    between atoms: _280  and  _282
REMARK  124  A    between atoms: _282  and  _283
REMARK  125  A    between atoms: _282  and  _285
REMARK  126  A    between atoms: _285  and  _286
REMARK  127  A    between atoms: _289  and  _291
REMARK  128  A    between atoms: _291  and  _292
REMARK  129  A    between atoms: _291  and  _294
REMARK  130  A    between atoms: _294  and  _295
REMARK  131  A    between atoms: _298  and  _300
REMARK  132  A    between atoms: _300  and  _301
REMARK  133  A    between atoms: _300  and  _303
REMARK  134  A    between atoms: _303  and  _304
REMARK  135  A    between atoms: _307  and  _309
REMARK  136  A    between atoms: _309  and  _310
REMARK  137  A    between atoms: _309  and  _312
REMARK  138  A    between atoms: _312  and  _313
REMARK  139  A    between atoms: _319  and  _321
REMARK  140  A    between atoms: _321  and  _322
REMARK  141  A    between atoms: _321  and  _324
REMARK  142  A    between atoms: _324  and  _325
REMARK  143  A    between atoms: _328  and  _330
REMARK  144  A    between atoms: _330  and  _331
REMARK  145  A    between atoms: _330  and  _333
REMARK  146  A    between atoms: _333  and  _334
REMARK  147  A    between atoms: _334  and  _335
REMARK  148  A    between atoms: _335  and  _336
REMARK  149  A    between atoms: _345  and  _347
REMARK  150  A    between atoms: _347  and  _348
REMARK  151  A    between atoms: _350  and  _352
REMARK  152  A    between atoms: _352  and  _353
REMARK  153  A    between atoms: _355  and  _357
REMARK  154  A    between atoms: _357  and  _358
REMARK  155  A    between atoms: _357  and  _360
REMARK  156  A    between atoms: _360  and  _361
REMARK  157  A    between atoms: _364  and  _366
REMARK  158  A    between atoms: _366  and  _367
REMARK  159  A    between atoms: _366  and  _369
REMARK  160  A    between atoms: _369  and  _370
REMARK  161  A    between atoms: _373  and  _375
REMARK  162  A    between atoms: _375  and  _376
REMARK  163  A    between atoms: _375  and  _378
REMARK  164  A    between atoms: _378  and  _379
REMARK  165  A    between atoms: _385  and  _387
REMARK  166  A    between atoms: _387  and  _388
REMARK  167  A    between atoms: _387  and  _390
REMARK  168  A    between atoms: _390  and  _391
REMARK  169  A    between atoms: _394  and  _396
REMARK  170  A    between atoms: _396  and  _397
REMARK  171  A    between atoms: _396  and  _399
REMARK  172  A    between atoms: _399  and  _400
REMARK  173  A    between atoms: _400  and  _401
REMARK  174  A    between atoms: _401  and  _402
REMARK  175  A    between atoms: _402  and  _403
REMARK  176  A    between atoms: _408  and  _409
REMARK  177  A    between atoms: _414  and  _416
REMARK  178  A    between atoms: _416  and  _417
REMARK  179  A    between atoms: _416  and  _419
REMARK  180  A    between atoms: _419  and  _420
REMARK  181  A    between atoms: _420  and  _421
REMARK  182  A    between atoms: _424  and  _426
REMARK  183  A    between atoms: _426  and  _427
REMARK  184  A    between atoms: _426  and  _429
REMARK  185  A    between atoms: _429  and  _430
REMARK  186  A    between atoms: _435  and  _437
REMARK  187  A    between atoms: _437  and  _438
REMARK  188  A    between atoms: _437  and  _440
REMARK  189  A    between atoms: _440  and  _441
REMARK  190  A    between atoms: _444  and  _446
REMARK  191  A    between atoms: _446  and  _447
REMARK  192  A    between atoms: _446  and  _449
REMARK  193  A    between atoms: _449  and  _450
REMARK  194  A    between atoms: _453  and  _455
REMARK  195  A    between atoms: _455  and  _456
REMARK  196  A    between atoms: _455  and  _458
REMARK  197  A    between atoms: _458  and  _459
REMARK  198  A    between atoms: _462  and  _464
REMARK  199  A    between atoms: _464  and  _465
REMARK  200  A    between atoms: _464  and  _467
REMARK  201  A    between atoms: _467  and  _468
REMARK  202  A    between atoms: _468  and  _469
REMARK  203  A    between atoms: _469  and  _470
REMARK  204  A    between atoms: _470  and  _471
REMARK  205  A    between atoms: _475  and  _477
REMARK  206  A    between atoms: _477  and  _478
REMARK  207  A    between atoms: _477  and  _480
REMARK  208  A    between atoms: _480  and  _481
REMARK  209  A    between atoms: _484  and  _486
REMARK  210  A    between atoms: _486  and  _487
REMARK  211  A    between atoms: _486  and  _489
REMARK  212  A    between atoms: _489  and  _490
REMARK  213  A    between atoms: _493  and  _495
REMARK  214  A    between atoms: _495  and  _496
REMARK  215  A    between atoms: _495  and  _498
REMARK  216  A    between atoms: _498  and  _499
REMARK  217  A    between atoms: _502  and  _504
REMARK  218  A    between atoms: _504  and  _505
REMARK  219  A    between atoms: _504  and  _507
REMARK  220  A    between atoms: _507  and  _508
REMARK  221  A    between atoms: _514  and  _516
REMARK  222  A    between atoms: _516  and  _517
REMARK  223  A    between atoms: _519  and  _521
REMARK  224  A    between atoms: _521  and  _522
REMARK  225  A    between atoms: _521  and  _524
REMARK  226  A    between atoms: _524  and  _525
REMARK  227  A    between atoms: _528  and  _530
REMARK  228  A    between atoms: _530  and  _531
REMARK  229  A    between atoms: _530  and  _533
REMARK  230  A    between atoms: _533  and  _534
REMARK  231  A    between atoms: _536  and  _538
REMARK  232  A    between atoms: _538  and  _539
REMARK  233  A    between atoms: _538  and  _541
REMARK  234  A    between atoms: _541  and  _542
REMARK  235  A    between atoms: _542  and  _543
REMARK  236  A    between atoms: _543  and  _544
REMARK  237  A    between atoms: _544  and  _545
REMARK                            x       y       z     vdW  Elec       q    Type
REMARK                         _______ _______ _______ _____ _____    ______ ____
ROOT
ATOM      1  O   HOH     1      32.713   6.034   2.494  0.00  0.00    +0.000 OA
ENDROOT
TORSDOF 0
REMARK  Name = ../refined-set-2016/3ubd/3ubd_pocket.pdb
REMARK  237 active torsions:
REMARK  status: ('A' for Active; 'I' for Inactive)
REMARK    1  A    between atoms: _1  and  _5
REMARK    2  A    between atoms: _5  and  _6
REMARK    3  A    between atoms: _5  and  _8
REMARK    4  A    between atoms: _8  and  _9
REMARK    5  A    between atoms: _9  and  _10
REMARK    6  A    between atoms: _13  and  _15
REMARK    7  A    between atoms: _15  and  _16
REMARK    8  A    between atoms: _15  and  _18
REMARK    9  A    between atoms: _18  and  _19
REMARK   10  A    between atoms: _22  and  _24
REMARK   11  A    between atoms: _24  and  _25
REMARK   12  A    between atoms: _28  and  _30
REMARK   13  A    between atoms: _30  and  _31
REMARK   14  A    between atoms: _30  and  _33
REMARK   15  A    between atoms: _33  and  _34
REMARK   16  A    between atoms: _37  and  _39
REMARK   17  A    between atoms: _39  and  _40
REMARK   18  A    between atoms: _39  and  _42
REMARK   19  A    between atoms: _42  and  _43
REMARK   20  A    between atoms: _43  and  _44
REMARK   21  A    between atoms: _49  and  _51
REMARK   22  A    between atoms: _51  and  _52
REMARK   23  A    between atoms: _54  and  _56
REMARK   24  A    between atoms: _56  and  _57
REMARK   25  A    between atoms: _56  and  _59
REMARK   26  A    between atoms: _59  and  _60
REMARK   27  A    between atoms: _62  and  _64
REMARK   28  A    between atoms: _64  and  _65
REMARK   29  A    between atoms: _64  and  _67
REMARK   30  A    between atoms: _67  and  _68
REMARK   31  A    between atoms: _74  and  _76
REMARK   32  A    between atoms: _76  and  _77
REMARK   33  A    between atoms: _79  and  _81
REMARK   34  A    between atoms: _81  and  _82
REMARK   35  A    between atoms: _81  and  _84
REMARK   36  A    between atoms: _84  and  _85
REMARK   37  A    between atoms: _85  and  _86
REMARK   38  A    between atoms: _86  and  _87
REMARK   39  A    between atoms: _87  and  _88
REMARK   40  A    between atoms: _92  and  _94
REMARK   41  A    between atoms: _94  and  _95
REMARK   42  A    between atoms: _94  and  _97
REMARK   43  A    between atoms: _100  and  _102
REMARK   44  A    between atoms: _102  and  _103
REMARK   45  A    between atoms: _102  and  _105
REMARK   46  A    between atoms: _105  and  _106
REMARK   47  A    between atoms: _112  and  _114
REMARK   48  A    between atoms: _114  and  _115
REMARK   49  A    between atoms: _114  and  _117
REMARK   50  A    between atoms: _117  and  _118
REMARK   51  A    between atoms: _123  and  _124
REMARK   52  A    between atoms: _126  and  _128
REMARK   53  A    between atoms: _128  and  _129
REMARK   54  A    between atoms: _132  and  _134
REMARK   55  A    between atoms: _134  and  _135
REMARK   56  A    between atoms: _134  and  _137
REMARK   57  A    between atoms: _137  and  _138
REMARK   58  A    between atoms: _138  and  _139
REMARK   59  A    between atoms: _141  and  _143
REMARK   60  A    between atoms: _143  and  _144
REMARK   61  A    between atoms: _143  and  _146
REMARK   62  A    between atoms: _146  and  _147
REMARK   63  A    between atoms: _147  and  _148
REMARK   64  A    between atoms: _148  and  _149
REMARK   65  A    between atoms: _149  and  _150
REMARK   66  A    between atoms: _154  and  _156
REMARK   67  A    between atoms: _156  and  _157
REMARK   68  A    between atoms: _156  and  _159
REMARK   69  A    between atoms: _162  and  _164
REMARK   70  A    between atoms: _164  and  _165
REMARK   71  A    between atoms: _164  and  _167
REMARK   72  A    between atoms: _167  and  _168
REMARK   73  A    between atoms: _171  and  _173
REMARK   74  A    between atoms: _173  and  _174
REMARK   75  A    between atoms: _173  and  _176
REMARK   76  A    between atoms: _176  and  _177
REMARK   77  A    between atoms: _177  and  _178
REMARK   78  A    between atoms: _178  and  _179
REMARK   79  A    between atoms: _179  and  _180
REMARK   80  A    between atoms: _184  and  _186
REMARK   81  A    between atoms: _186  and  _187
REMARK   82  A    between atoms: _186  and  _189
REMARK   83  A    between atoms: _189  and  _190
REMARK   84  A    between atoms: _190  and  _191
REMARK   85  A    between atoms: _191  and  _192
REMARK   86  A    between atoms: _192  and  _193
REMARK   87  A    between atoms: _197  and  _199
REMARK   88  A    between atoms: _199  and  _200
REMARK   89  A    between atoms: _203  and  _205
REMARK   90  A    between atoms: _205  and  _206
REMARK   91  A    between atoms: _205  and  _208
REMARK   92  A    between atoms: _208  and  _209
REMARK   93  A    between atoms: _212  and  _214
REMARK   94  A    between atoms: _214  and  _215
REMARK   95  A    between atoms: _214  and  _217
REMARK   96  A    between atoms: _217  and  _218
REMARK   97  A    between atoms: _221  and  _223
REMARK   98  A    between atoms: _223  and  _224
REMARK   99  A    between atoms: _223  and  _226
REMARK  100  A    between atoms: _229  and  _231
REMARK  101  A    between atoms: _231  and  _232
REMARK  102  A    between atoms: _231  and  _234
REMARK  103  A    between atoms: _234  and  _235
REMARK  104  A    between atoms: _235  and  _236
REMARK  105  A    between atoms: _236  and  _237
REMARK  106  A    between atoms: _237  and  _238
REMARK  107  A    between atoms: _242  and  _244
REMARK  108  A    between atoms: _244  and  _245
REMARK  109  A    between atoms: _244  and  _247
REMARK  110  A    between atoms: _247  and  _248
REMARK  111  A    between atoms: _251  and  _253
REMARK  112  A    between atoms: _253  and  _254
REMARK  113  A    between atoms: _253  and  _256
REMARK  114  A    between atoms: _256  and  _257
REMARK  115  A    between atoms: _262  and  _264
REMARK  116  A    between atoms: _264  and  _265
REMARK  117  A    between atoms: _264  and  _267
REMARK  118  A    between atoms: _267  and  _268
REMARK  119  A    between atoms: _271  and  _273
REMARK  120  A    between atoms: _273  and  _274
REMARK  121  A    between atoms: _273  and  _276
REMARK  122  A    between atoms: _276  and  _277
REMARK  123  A    between atoms: _280  and  _282
REMARK  124  A    between atoms: _282  and  _283
REMARK  125  A    between atoms: _282  and  _285
REMARK  126  A    between atoms: _285  and  _286
REMARK  127  A    between atoms: _289  and  _291
REMARK  128  A    between atoms: _291  and  _292
REMARK  129  A    between atoms: _291  and  _294
REMARK  130  A    between atoms: _294  and  _295
REMARK  131  A    between atoms: _298  and  _300
REMARK  132  A    between atoms: _300  and  _301
REMARK  133  A    between atoms: _300  and  _303
REMARK  134  A    between atoms: _303  and  _304
REMARK  135  A    between atoms: _307  and  _309
REMARK  136  A    between atoms: _309  and  _310
REMARK  137  A    between atoms: _309  and  _312
REMARK  138  A    between atoms: _312  and  _313
REMARK  139  A    between atoms: _319  and  _321
REMARK  140  A    between atoms: _321  and  _322
REMARK  141  A    between atoms: _321  and  _324
REMARK  142  A    between atoms: _324  and  _325
REMARK  143  A    between atoms: _328  and  _330
REMARK  144  A    between atoms: _330  and  _331
REMARK  145  A    between atoms: _330  and  _333
REMARK  146  A    between atoms: _333  and  _334
REMARK  147  A    between atoms: _334  and  _335
REMARK  148  A    between atoms: _335  and  _336
REMARK  149  A    between atoms: _345  and  _347
REMARK  150  A    between atoms: _347  and  _348
REMARK  151  A    between atoms: _350  and  _352
REMARK  152  A    between atoms: _352  and  _353
REMARK  153  A    between atoms: _355  and  _357
REMARK  154  A    between atoms: _357  and  _358
REMARK  155  A    between atoms: _357  and  _360
REMARK  156  A    between atoms: _360  and  _361
REMARK  157  A    between atoms: _364  and  _366
REMARK  158  A    between atoms: _366  and  _367
REMARK  159  A    between atoms: _366  and  _369
REMARK  160  A    between atoms: _369  and  _370
REMARK  161  A    between atoms: _373  and  _375
REMARK  162  A    between atoms: _375  and  _376
REMARK  163  A    between atoms: _375  and  _378
REMARK  164  A    between atoms: _378  and  _379
REMARK  165  A    between atoms: _385  and  _387
REMARK  166  A    between atoms: _387  and  _388
REMARK  167  A    between atoms: _387  and  _390
REMARK  168  A    between atoms: _390  and  _391
REMARK  169  A    between atoms: _394  and  _396
REMARK  170  A    between atoms: _396  and  _397
REMARK  171  A    between atoms: _396  and  _399
REMARK  172  A    between atoms: _399  and  _400
REMARK  173  A    between atoms: _400  and  _401
REMARK  174  A    between atoms: _401  and  _402
REMARK  175  A    between atoms: _402  and  _403
REMARK  176  A    between atoms: _408  and  _409
REMARK  177  A    between atoms: _414  and  _416
REMARK  178  A    between atoms: _416  and  _417
REMARK  179  A    between atoms: _416  and  _419
REMARK  180  A    between atoms: _419  and  _420
REMARK  181  A    between atoms: _420  and  _421
REMARK  182  A    between atoms: _424  and  _426
REMARK  183  A    between atoms: _426  and  _427
REMARK  184  A    between atoms: _426  and  _429
REMARK  185  A    between atoms: _429  and  _430
REMARK  186  A    between atoms: _435  and  _437
REMARK  187  A    between atoms: _437  and  _438
REMARK  188  A    between atoms: _437  and  _440
REMARK  189  A    between atoms: _440  and  _441
REMARK  190  A    between atoms: _444  and  _446
REMARK  191  A    between atoms: _446  and  _447
REMARK  192  A    between atoms: _446  and  _449
REMARK  193  A    between atoms: _449  and  _450
REMARK  194  A    between atoms: _453  and  _455
REMARK  195  A    between atoms: _455  and  _456
REMARK  196  A    between atoms: _455  and  _458
REMARK  197  A    between atoms: _458  and  _459
REMARK  198  A    between atoms: _462  and  _464
REMARK  199  A    between atoms: _464  and  _465
REMARK  200  A    between atoms: _464  and  _467
REMARK  201  A    between atoms: _467  and  _468
REMARK  202  A    between atoms: _468  and  _469
REMARK  203  A    between atoms: _469  and  _470
REMARK  204  A    between atoms: _470  and  _471
REMARK  205  A    between atoms: _475  and  _477
REMARK  206  A    between atoms: _477  and  _478
REMARK  207  A    between atoms: _477  and  _480
REMARK  208  A    between atoms: _480  and  _481
REMARK  209  A    between atoms: _484  and  _486
REMARK  210  A    between atoms: _486  and  _487
REMARK  211  A    between atoms: _486  and  _489
REMARK  212  A    between atoms: _489  and  _490
REMARK  213  A    between atoms: _493  and  _495
REMARK  214  A    between atoms: _495  and  _496
REMARK  215  A    between atoms: _495  and  _498
REMARK  216  A    between atoms: _498  and  _499
REMARK  217  A    between atoms: _502  and  _504
REMARK  218  A    between atoms: _504  and  _505
REMARK  219  A    between atoms: _504  and  _507
REMARK  220  A    between atoms: _507  and  _508
REMARK  221  A    between atoms: _514  and  _516
REMARK  222  A    between atoms: _516  and  _517
REMARK  223  A    between atoms: _519  and  _521
REMARK  224  A    between atoms: _521  and  _522
REMARK  225  A    between atoms: _521  and  _524
REMARK  226  A    between atoms: _524  and  _525
REMARK  227  A    between atoms: _528  and  _530
REMARK  228  A    between atoms: _530  and  _531
REMARK  229  A    between atoms: _530  and  _533
REMARK  230  A    between atoms: _533  and  _534
REMARK  231  A    between atoms: _536  and  _538
REMARK  232  A    between atoms: _538  and  _539
REMARK  233  A    between atoms: _538  and  _541
REMARK  234  A    between atoms: _541  and  _542
REMARK  235  A    between atoms: _542  and  _543
REMARK  236  A    between atoms: _543  and  _544
REMARK  237  A    between atoms: _544  and  _545
REMARK                            x       y       z     vdW  Elec       q    Type
REMARK                         _______ _______ _______ _____ _____    ______ ____
ROOT
ATOM      1  O   HOH     1      26.660   3.826   8.577  0.00  0.00    +0.000 OA
ENDROOT
TORSDOF 0
REMARK  Name = ../refined-set-2016/3ubd/3ubd_pocket.pdb
REMARK  237 active torsions:
REMARK  status: ('A' for Active; 'I' for Inactive)
REMARK    1  A    between atoms: _1  and  _5
REMARK    2  A    between atoms: _5  and  _6
REMARK    3  A    between atoms: _5  and  _8
REMARK    4  A    between atoms: _8  and  _9
REMARK    5  A    between atoms: _9  and  _10
REMARK    6  A    between atoms: _13  and  _15
REMARK    7  A    between atoms: _15  and  _16
REMARK    8  A    between atoms: _15  and  _18
REMARK    9  A    between atoms: _18  and  _19
REMARK   10  A    between atoms: _22  and  _24
REMARK   11  A    between atoms: _24  and  _25
REMARK   12  A    between atoms: _28  and  _30
REMARK   13  A    between atoms: _30  and  _31
REMARK   14  A    between atoms: _30  and  _33
REMARK   15  A    between atoms: _33  and  _34
REMARK   16  A    between atoms: _37  and  _39
REMARK   17  A    between atoms: _39  and  _40
REMARK   18  A    between atoms: _39  and  _42
REMARK   19  A    between atoms: _42  and  _43
REMARK   20  A    between atoms: _43  and  _44
REMARK   21  A    between atoms: _49  and  _51
REMARK   22  A    between atoms: _51  and  _52
REMARK   23  A    between atoms: _54  and  _56
REMARK   24  A    between atoms: _56  and  _57
REMARK   25  A    between atoms: _56  and  _59
REMARK   26  A    between atoms: _59  and  _60
REMARK   27  A    between atoms: _62  and  _64
REMARK   28  A    between atoms: _64  and  _65
REMARK   29  A    between atoms: _64  and  _67
REMARK   30  A    between atoms: _67  and  _68
REMARK   31  A    between atoms: _74  and  _76
REMARK   32  A    between atoms: _76  and  _77
REMARK   33  A    between atoms: _79  and  _81
REMARK   34  A    between atoms: _81  and  _82
REMARK   35  A    between atoms: _81  and  _84
REMARK   36  A    between atoms: _84  and  _85
REMARK   37  A    between atoms: _85  and  _86
REMARK   38  A    between atoms: _86  and  _87
REMARK   39  A    between atoms: _87  and  _88
REMARK   40  A    between atoms: _92  and  _94
REMARK   41  A    between atoms: _94  and  _95
REMARK   42  A    between atoms: _94  and  _97
REMARK   43  A    between atoms: _100  and  _102
REMARK   44  A    between atoms: _102  and  _103
REMARK   45  A    between atoms: _102  and  _105
REMARK   46  A    between atoms: _105  and  _106
REMARK   47  A    between atoms: _112  and  _114
REMARK   48  A    between atoms: _114  and  _115
REMARK   49  A    between atoms: _114  and  _117
REMARK   50  A    between atoms: _117  and  _118
REMARK   51  A    between atoms: _123  and  _124
REMARK   52  A    between atoms: _126  and  _128
REMARK   53  A    between atoms: _128  and  _129
REMARK   54  A    between atoms: _132  and  _134
REMARK   55  A    between atoms: _134  and  _135
REMARK   56  A    between atoms: _134  and  _137
REMARK   57  A    between atoms: _137  and  _138
REMARK   58  A    between atoms: _138  and  _139
REMARK   59  A    between atoms: _141  and  _143
REMARK   60  A    between atoms: _143  and  _144
REMARK   61  A    between atoms: _143  and  _146
REMARK   62  A    between atoms: _146  and  _147
REMARK   63  A    between atoms: _147  and  _148
REMARK   64  A    between atoms: _148  and  _149
REMARK   65  A    between atoms: _149  and  _150
REMARK   66  A    between atoms: _154  and  _156
REMARK   67  A    between atoms: _156  and  _157
REMARK   68  A    between atoms: _156  and  _159
REMARK   69  A    between atoms: _162  and  _164
REMARK   70  A    between atoms: _164  and  _165
REMARK   71  A    between atoms: _164  and  _167
REMARK   72  A    between atoms: _167  and  _168
REMARK   73  A    between atoms: _171  and  _173
REMARK   74  A    between atoms: _173  and  _174
REMARK   75  A    between atoms: _173  and  _176
REMARK   76  A    between atoms: _176  and  _177
REMARK   77  A    between atoms: _177  and  _178
REMARK   78  A    between atoms: _178  and  _179
REMARK   79  A    between atoms: _179  and  _180
REMARK   80  A    between atoms: _184  and  _186
REMARK   81  A    between atoms: _186  and  _187
REMARK   82  A    between atoms: _186  and  _189
REMARK   83  A    between atoms: _189  and  _190
REMARK   84  A    between atoms: _190  and  _191
REMARK   85  A    between atoms: _191  and  _192
REMARK   86  A    between atoms: _192  and  _193
REMARK   87  A    between atoms: _197  and  _199
REMARK   88  A    between atoms: _199  and  _200
REMARK   89  A    between atoms: _203  and  _205
REMARK   90  A    between atoms: _205  and  _206
REMARK   91  A    between atoms: _205  and  _208
REMARK   92  A    between atoms: _208  and  _209
REMARK   93  A    between atoms: _212  and  _214
REMARK   94  A    between atoms: _214  and  _215
REMARK   95  A    between atoms: _214  and  _217
REMARK   96  A    between atoms: _217  and  _218
REMARK   97  A    between atoms: _221  and  _223
REMARK   98  A    between atoms: _223  and  _224
REMARK   99  A    between atoms: _223  and  _226
REMARK  100  A    between atoms: _229  and  _231
REMARK  101  A    between atoms: _231  and  _232
REMARK  102  A    between atoms: _231  and  _234
REMARK  103  A    between atoms: _234  and  _235
REMARK  104  A    between atoms: _235  and  _236
REMARK  105  A    between atoms: _236  and  _237
REMARK  106  A    between atoms: _237  and  _238
REMARK  107  A    between atoms: _242  and  _244
REMARK  108  A    between atoms: _244  and  _245
REMARK  109  A    between atoms: _244  and  _247
REMARK  110  A    between atoms: _247  and  _248
REMARK  111  A    between atoms: _251  and  _253
REMARK  112  A    between atoms: _253  and  _254
REMARK  113  A    between atoms: _253  and  _256
REMARK  114  A    between atoms: _256  and  _257
REMARK  115  A    between atoms: _262  and  _264
REMARK  116  A    between atoms: _264  and  _265
REMARK  117  A    between atoms: _264  and  _267
REMARK  118  A    between atoms: _267  and  _268
REMARK  119  A    between atoms: _271  and  _273
REMARK  120  A    between atoms: _273  and  _274
REMARK  121  A    between atoms: _273  and  _276
REMARK  122  A    between atoms: _276  and  _277
REMARK  123  A    between atoms: _280  and  _282
REMARK  124  A    between atoms: _282  and  _283
REMARK  125  A    between atoms: _282  and  _285
REMARK  126  A    between atoms: _285  and  _286
REMARK  127  A    between atoms: _289  and  _291
REMARK  128  A    between atoms: _291  and  _292
REMARK  129  A    between atoms: _291  and  _294
REMARK  130  A    between atoms: _294  and  _295
REMARK  131  A    between atoms: _298  and  _300
REMARK  132  A    between atoms: _300  and  _301
REMARK  133  A    between atoms: _300  and  _303
REMARK  134  A    between atoms: _303  and  _304
REMARK  135  A    between atoms: _307  and  _309
REMARK  136  A    between atoms: _309  and  _310
REMARK  137  A    between atoms: _309  and  _312
REMARK  138  A    between atoms: _312  and  _313
REMARK  139  A    between atoms: _319  and  _321
REMARK  140  A    between atoms: _321  and  _322
REMARK  141  A    between atoms: _321  and  _324
REMARK  142  A    between atoms: _324  and  _325
REMARK  143  A    between atoms: _328  and  _330
REMARK  144  A    between atoms: _330  and  _331
REMARK  145  A    between atoms: _330  and  _333
REMARK  146  A    between atoms: _333  and  _334
REMARK  147  A    between atoms: _334  and  _335
REMARK  148  A    between atoms: _335  and  _336
REMARK  149  A    between atoms: _345  and  _347
REMARK  150  A    between atoms: _347  and  _348
REMARK  151  A    between atoms: _350  and  _352
REMARK  152  A    between atoms: _352  and  _353
REMARK  153  A    between atoms: _355  and  _357
REMARK  154  A    between atoms: _357  and  _358
REMARK  155  A    between atoms: _357  and  _360
REMARK  156  A    between atoms: _360  and  _361
REMARK  157  A    between atoms: _364  and  _366
REMARK  158  A    between atoms: _366  and  _367
REMARK  159  A    between atoms: _366  and  _369
REMARK  160  A    between atoms: _369  and  _370
REMARK  161  A    between atoms: _373  and  _375
REMARK  162  A    between atoms: _375  and  _376
REMARK  163  A    between atoms: _375  and  _378
REMARK  164  A    between atoms: _378  and  _379
REMARK  165  A    between atoms: _385  and  _387
REMARK  166  A    between atoms: _387  and  _388
REMARK  167  A    between atoms: _387  and  _390
REMARK  168  A    between atoms: _390  and  _391
REMARK  169  A    between atoms: _394  and  _396
REMARK  170  A    between atoms: _396  and  _397
REMARK  171  A    between atoms: _396  and  _399
REMARK  172  A    between atoms: _399  and  _400
REMARK  173  A    between atoms: _400  and  _401
REMARK  174  A    between atoms: _401  and  _402
REMARK  175  A    between atoms: _402  and  _403
REMARK  176  A    between atoms: _408  and  _409
REMARK  177  A    between atoms: _414  and  _416
REMARK  178  A    between atoms: _416  and  _417
REMARK  179  A    between atoms: _416  and  _419
REMARK  180  A    between atoms: _419  and  _420
REMARK  181  A    between atoms: _420  and  _421
REMARK  182  A    between atoms: _424  and  _426
REMARK  183  A    between atoms: _426  and  _427
REMARK  184  A    between atoms: _426  and  _429
REMARK  185  A    between atoms: _429  and  _430
REMARK  186  A    between atoms: _435  and  _437
REMARK  187  A    between atoms: _437  and  _438
REMARK  188  A    between atoms: _437  and  _440
REMARK  189  A    between atoms: _440  and  _441
REMARK  190  A    between atoms: _444  and  _446
REMARK  191  A    between atoms: _446  and  _447
REMARK  192  A    between atoms: _446  and  _449
REMARK  193  A    between atoms: _449  and  _450
REMARK  194  A    between atoms: _453  and  _455
REMARK  195  A    between atoms: _455  and  _456
REMARK  196  A    between atoms: _455  and  _458
REMARK  197  A    between atoms: _458  and  _459
REMARK  198  A    between atoms: _462  and  _464
REMARK  199  A    between atoms: _464  and  _465
REMARK  200  A    between atoms: _464  and  _467
REMARK  201  A    between atoms: _467  and  _468
REMARK  202  A    between atoms: _468  and  _469
REMARK  203  A    between atoms: _469  and  _470
REMARK  204  A    between atoms: _470  and  _471
REMARK  205  A    between atoms: _475  and  _477
REMARK  206  A    between atoms: _477  and  _478
REMARK  207  A    between atoms: _477  and  _480
REMARK  208  A    between atoms: _480  and  _481
REMARK  209  A    between atoms: _484  and  _486
REMARK  210  A    between atoms: _486  and  _487
REMARK  211  A    between atoms: _486  and  _489
REMARK  212  A    between atoms: _489  and  _490
REMARK  213  A    between atoms: _493  and  _495
REMARK  214  A    between atoms: _495  and  _496
REMARK  215  A    between atoms: _495  and  _498
REMARK  216  A    between atoms: _498  and  _499
REMARK  217  A    between atoms: _502  and  _504
REMARK  218  A    between atoms: _504  and  _505
REMARK  219  A    between atoms: _504  and  _507
REMARK  220  A    between atoms: _507  and  _508
REMARK  221  A    between atoms: _514  and  _516
REMARK  222  A    between atoms: _516  and  _517
REMARK  223  A    between atoms: _519  and  _521
REMARK  224  A    between atoms: _521  and  _522
REMARK  225  A    between atoms: _521  and  _524
REMARK  226  A    between atoms: _524  and  _525
REMARK  227  A    between atoms: _528  and  _530
REMARK  228  A    between atoms: _530  and  _531
REMARK  229  A    between atoms: _530  and  _533
REMARK  230  A    between atoms: _533  and  _534
REMARK  231  A    between atoms: _536  and  _538
REMARK  232  A    between atoms: _538  and  _539
REMARK  233  A    between atoms: _538  and  _541
REMARK  234  A    between atoms: _541  and  _542
REMARK  235  A    between atoms: _542  and  _543
REMARK  236  A    between atoms: _543  and  _544
REMARK  237  A    between atoms: _544  and  _545
REMARK                            x       y       z     vdW  Elec       q    Type
REMARK                         _______ _______ _______ _____ _____    ______ ____
ROOT
ATOM      1  O   HOH     1      44.068   0.516  18.947  0.00  0.00    +0.000 OA
ENDROOT
TORSDOF 0
REMARK  Name = ../refined-set-2016/3ubd/3ubd_pocket.pdb
REMARK  237 active torsions:
REMARK  status: ('A' for Active; 'I' for Inactive)
REMARK    1  A    between atoms: _1  and  _5
REMARK    2  A    between atoms: _5  and  _6
REMARK    3  A    between atoms: _5  and  _8
REMARK    4  A    between atoms: _8  and  _9
REMARK    5  A    between atoms: _9  and  _10
REMARK    6  A    between atoms: _13  and  _15
REMARK    7  A    between atoms: _15  and  _16
REMARK    8  A    between atoms: _15  and  _18
REMARK    9  A    between atoms: _18  and  _19
REMARK   10  A    between atoms: _22  and  _24
REMARK   11  A    between atoms: _24  and  _25
REMARK   12  A    between atoms: _28  and  _30
REMARK   13  A    between atoms: _30  and  _31
REMARK   14  A    between atoms: _30  and  _33
REMARK   15  A    between atoms: _33  and  _34
REMARK   16  A    between atoms: _37  and  _39
REMARK   17  A    between atoms: _39  and  _40
REMARK   18  A    between atoms: _39  and  _42
REMARK   19  A    between atoms: _42  and  _43
REMARK   20  A    between atoms: _43  and  _44
REMARK   21  A    between atoms: _49  and  _51
REMARK   22  A    between atoms: _51  and  _52
REMARK   23  A    between atoms: _54  and  _56
REMARK   24  A    between atoms: _56  and  _57
REMARK   25  A    between atoms: _56  and  _59
REMARK   26  A    between atoms: _59  and  _60
REMARK   27  A    between atoms: _62  and  _64
REMARK   28  A    between atoms: _64  and  _65
REMARK   29  A    between atoms: _64  and  _67
REMARK   30  A    between atoms: _67  and  _68
REMARK   31  A    between atoms: _74  and  _76
REMARK   32  A    between atoms: _76  and  _77
REMARK   33  A    between atoms: _79  and  _81
REMARK   34  A    between atoms: _81  and  _82
REMARK   35  A    between atoms: _81  and  _84
REMARK   36  A    between atoms: _84  and  _85
REMARK   37  A    between atoms: _85  and  _86
REMARK   38  A    between atoms: _86  and  _87
REMARK   39  A    between atoms: _87  and  _88
REMARK   40  A    between atoms: _92  and  _94
REMARK   41  A    between atoms: _94  and  _95
REMARK   42  A    between atoms: _94  and  _97
REMARK   43  A    between atoms: _100  and  _102
REMARK   44  A    between atoms: _102  and  _103
REMARK   45  A    between atoms: _102  and  _105
REMARK   46  A    between atoms: _105  and  _106
REMARK   47  A    between atoms: _112  and  _114
REMARK   48  A    between atoms: _114  and  _115
REMARK   49  A    between atoms: _114  and  _117
REMARK   50  A    between atoms: _117  and  _118
REMARK   51  A    between atoms: _123  and  _124
REMARK   52  A    between atoms: _126  and  _128
REMARK   53  A    between atoms: _128  and  _129
REMARK   54  A    between atoms: _132  and  _134
REMARK   55  A    between atoms: _134  and  _135
REMARK   56  A    between atoms: _134  and  _137
REMARK   57  A    between atoms: _137  and  _138
REMARK   58  A    between atoms: _138  and  _139
REMARK   59  A    between atoms: _141  and  _143
REMARK   60  A    between atoms: _143  and  _144
REMARK   61  A    between atoms: _143  and  _146
REMARK   62  A    between atoms: _146  and  _147
REMARK   63  A    between atoms: _147  and  _148
REMARK   64  A    between atoms: _148  and  _149
REMARK   65  A    between atoms: _149  and  _150
REMARK   66  A    between atoms: _154  and  _156
REMARK   67  A    between atoms: _156  and  _157
REMARK   68  A    between atoms: _156  and  _159
REMARK   69  A    between atoms: _162  and  _164
REMARK   70  A    between atoms: _164  and  _165
REMARK   71  A    between atoms: _164  and  _167
REMARK   72  A    between atoms: _167  and  _168
REMARK   73  A    between atoms: _171  and  _173
REMARK   74  A    between atoms: _173  and  _174
REMARK   75  A    between atoms: _173  and  _176
REMARK   76  A    between atoms: _176  and  _177
REMARK   77  A    between atoms: _177  and  _178
REMARK   78  A    between atoms: _178  and  _179
REMARK   79  A    between atoms: _179  and  _180
REMARK   80  A    between atoms: _184  and  _186
REMARK   81  A    between atoms: _186  and  _187
REMARK   82  A    between atoms: _186  and  _189
REMARK   83  A    between atoms: _189  and  _190
REMARK   84  A    between atoms: _190  and  _191
REMARK   85  A    between atoms: _191  and  _192
REMARK   86  A    between atoms: _192  and  _193
REMARK   87  A    between atoms: _197  and  _199
REMARK   88  A    between atoms: _199  and  _200
REMARK   89  A    between atoms: _203  and  _205
REMARK   90  A    between atoms: _205  and  _206
REMARK   91  A    between atoms: _205  and  _208
REMARK   92  A    between atoms: _208  and  _209
REMARK   93  A    between atoms: _212  and  _214
REMARK   94  A    between atoms: _214  and  _215
REMARK   95  A    between atoms: _214  and  _217
REMARK   96  A    between atoms: _217  and  _218
REMARK   97  A    between atoms: _221  and  _223
REMARK   98  A    between atoms: _223  and  _224
REMARK   99  A    between atoms: _223  and  _226
REMARK  100  A    between atoms: _229  and  _231
REMARK  101  A    between atoms: _231  and  _232
REMARK  102  A    between atoms: _231  and  _234
REMARK  103  A    between atoms: _234  and  _235
REMARK  104  A    between atoms: _235  and  _236
REMARK  105  A    between atoms: _236  and  _237
REMARK  106  A    between atoms: _237  and  _238
REMARK  107  A    between atoms: _242  and  _244
REMARK  108  A    between atoms: _244  and  _245
REMARK  109  A    between atoms: _244  and  _247
REMARK  110  A    between atoms: _247  and  _248
REMARK  111  A    between atoms: _251  and  _253
REMARK  112  A    between atoms: _253  and  _254
REMARK  113  A    between atoms: _253  and  _256
REMARK  114  A    between atoms: _256  and  _257
REMARK  115  A    between atoms: _262  and  _264
REMARK  116  A    between atoms: _264  and  _265
REMARK  117  A    between atoms: _264  and  _267
REMARK  118  A    between atoms: _267  and  _268
REMARK  119  A    between atoms: _271  and  _273
REMARK  120  A    between atoms: _273  and  _274
REMARK  121  A    between atoms: _273  and  _276
REMARK  122  A    between atoms: _276  and  _277
REMARK  123  A    between atoms: _280  and  _282
REMARK  124  A    between atoms: _282  and  _283
REMARK  125  A    between atoms: _282  and  _285
REMARK  126  A    between atoms: _285  and  _286
REMARK  127  A    between atoms: _289  and  _291
REMARK  128  A    between atoms: _291  and  _292
REMARK  129  A    between atoms: _291  and  _294
REMARK  130  A    between atoms: _294  and  _295
REMARK  131  A    between atoms: _298  and  _300
REMARK  132  A    between atoms: _300  and  _301
REMARK  133  A    between atoms: _300  and  _303
REMARK  134  A    between atoms: _303  and  _304
REMARK  135  A    between atoms: _307  and  _309
REMARK  136  A    between atoms: _309  and  _310
REMARK  137  A    between atoms: _309  and  _312
REMARK  138  A    between atoms: _312  and  _313
REMARK  139  A    between atoms: _319  and  _321
REMARK  140  A    between atoms: _321  and  _322
REMARK  141  A    between atoms: _321  and  _324
REMARK  142  A    between atoms: _324  and  _325
REMARK  143  A    between atoms: _328  and  _330
REMARK  144  A    between atoms: _330  and  _331
REMARK  145  A    between atoms: _330  and  _333
REMARK  146  A    between atoms: _333  and  _334
REMARK  147  A    between atoms: _334  and  _335
REMARK  148  A    between atoms: _335  and  _336
REMARK  149  A    between atoms: _345  and  _347
REMARK  150  A    between atoms: _347  and  _348
REMARK  151  A    between atoms: _350  and  _352
REMARK  152  A    between atoms: _352  and  _353
REMARK  153  A    between atoms: _355  and  _357
REMARK  154  A    between atoms: _357  and  _358
REMARK  155  A    between atoms: _357  and  _360
REMARK  156  A    between atoms: _360  and  _361
REMARK  157  A    between atoms: _364  and  _366
REMARK  158  A    between atoms: _366  and  _367
REMARK  159  A    between atoms: _366  and  _369
REMARK  160  A    between atoms: _369  and  _370
REMARK  161  A    between atoms: _373  and  _375
REMARK  162  A    between atoms: _375  and  _376
REMARK  163  A    between atoms: _375  and  _378
REMARK  164  A    between atoms: _378  and  _379
REMARK  165  A    between atoms: _385  and  _387
REMARK  166  A    between atoms: _387  and  _388
REMARK  167  A    between atoms: _387  and  _390
REMARK  168  A    between atoms: _390  and  _391
REMARK  169  A    between atoms: _394  and  _396
REMARK  170  A    between atoms: _396  and  _397
REMARK  171  A    between atoms: _396  and  _399
REMARK  172  A    between atoms: _399  and  _400
REMARK  173  A    between atoms: _400  and  _401
REMARK  174  A    between atoms: _401  and  _402
REMARK  175  A    between atoms: _402  and  _403
REMARK  176  A    between atoms: _408  and  _409
REMARK  177  A    between atoms: _414  and  _416
REMARK  178  A    between atoms: _416  and  _417
REMARK  179  A    between atoms: _416  and  _419
REMARK  180  A    between atoms: _419  and  _420
REMARK  181  A    between atoms: _420  and  _421
REMARK  182  A    between atoms: _424  and  _426
REMARK  183  A    between atoms: _426  and  _427
REMARK  184  A    between atoms: _426  and  _429
REMARK  185  A    between atoms: _429  and  _430
REMARK  186  A    between atoms: _435  and  _437
REMARK  187  A    between atoms: _437  and  _438
REMARK  188  A    between atoms: _437  and  _440
REMARK  189  A    between atoms: _440  and  _441
REMARK  190  A    between atoms: _444  and  _446
REMARK  191  A    between atoms: _446  and  _447
REMARK  192  A    between atoms: _446  and  _449
REMARK  193  A    between atoms: _449  and  _450
REMARK  194  A    between atoms: _453  and  _455
REMARK  195  A    between atoms: _455  and  _456
REMARK  196  A    between atoms: _455  and  _458
REMARK  197  A    between atoms: _458  and  _459
REMARK  198  A    between atoms: _462  and  _464
REMARK  199  A    between atoms: _464  and  _465
REMARK  200  A    between atoms: _464  and  _467
REMARK  201  A    between atoms: _467  and  _468
REMARK  202  A    between atoms: _468  and  _469
REMARK  203  A    between atoms: _469  and  _470
REMARK  204  A    between atoms: _470  and  _471
REMARK  205  A    between atoms: _475  and  _477
REMARK  206  A    between atoms: _477  and  _478
REMARK  207  A    between atoms: _477  and  _480
REMARK  208  A    between atoms: _480  and  _481
REMARK  209  A    between atoms: _484  and  _486
REMARK  210  A    between atoms: _486  and  _487
REMARK  211  A    between atoms: _486  and  _489
REMARK  212  A    between atoms: _489  and  _490
REMARK  213  A    between atoms: _493  and  _495
REMARK  214  A    between atoms: _495  and  _496
REMARK  215  A    between atoms: _495  and  _498
REMARK  216  A    between atoms: _498  and  _499
REMARK  217  A    between atoms: _502  and  _504
REMARK  218  A    between atoms: _504  and  _505
REMARK  219  A    between atoms: _504  and  _507
REMARK  220  A    between atoms: _507  and  _508
REMARK  221  A    between atoms: _514  and  _516
REMARK  222  A    between atoms: _516  and  _517
REMARK  223  A    between atoms: _519  and  _521
REMARK  224  A    between atoms: _521  and  _522
REMARK  225  A    between atoms: _521  and  _524
REMARK  226  A    between atoms: _524  and  _525
REMARK  227  A    between atoms: _528  and  _530
REMARK  228  A    between atoms: _530  and  _531
REMARK  229  A    between atoms: _530  and  _533
REMARK  230  A    between atoms: _533  and  _534
REMARK  231  A    between atoms: _536  and  _538
REMARK  232  A    between atoms: _538  and  _539
REMARK  233  A    between atoms: _538  and  _541
REMARK  234  A    between atoms: _541  and  _542
REMARK  235  A    between atoms: _542  and  _543
REMARK  236  A    between atoms: _543  and  _544
REMARK  237  A    between atoms: _544  and  _545
REMARK                            x       y       z     vdW  Elec       q    Type
REMARK                         _______ _______ _______ _____ _____    ______ ____
ROOT
ATOM      1  O   HOH     1      42.929  -3.612  14.008  0.00  0.00    +0.000 OA
ENDROOT
TORSDOF 0
REMARK  Name = ../refined-set-2016/3ubd/3ubd_pocket.pdb
REMARK  237 active torsions:
REMARK  status: ('A' for Active; 'I' for Inactive)
REMARK    1  A    between atoms: _1  and  _5
REMARK    2  A    between atoms: _5  and  _6
REMARK    3  A    between atoms: _5  and  _8
REMARK    4  A    between atoms: _8  and  _9
REMARK    5  A    between atoms: _9  and  _10
REMARK    6  A    between atoms: _13  and  _15
REMARK    7  A    between atoms: _15  and  _16
REMARK    8  A    between atoms: _15  and  _18
REMARK    9  A    between atoms: _18  and  _19
REMARK   10  A    between atoms: _22  and  _24
REMARK   11  A    between atoms: _24  and  _25
REMARK   12  A    between atoms: _28  and  _30
REMARK   13  A    between atoms: _30  and  _31
REMARK   14  A    between atoms: _30  and  _33
REMARK   15  A    between atoms: _33  and  _34
REMARK   16  A    between atoms: _37  and  _39
REMARK   17  A    between atoms: _39  and  _40
REMARK   18  A    between atoms: _39  and  _42
REMARK   19  A    between atoms: _42  and  _43
REMARK   20  A    between atoms: _43  and  _44
REMARK   21  A    between atoms: _49  and  _51
REMARK   22  A    between atoms: _51  and  _52
REMARK   23  A    between atoms: _54  and  _56
REMARK   24  A    between atoms: _56  and  _57
REMARK   25  A    between atoms: _56  and  _59
REMARK   26  A    between atoms: _59  and  _60
REMARK   27  A    between atoms: _62  and  _64
REMARK   28  A    between atoms: _64  and  _65
REMARK   29  A    between atoms: _64  and  _67
REMARK   30  A    between atoms: _67  and  _68
REMARK   31  A    between atoms: _74  and  _76
REMARK   32  A    between atoms: _76  and  _77
REMARK   33  A    between atoms: _79  and  _81
REMARK   34  A    between atoms: _81  and  _82
REMARK   35  A    between atoms: _81  and  _84
REMARK   36  A    between atoms: _84  and  _85
REMARK   37  A    between atoms: _85  and  _86
REMARK   38  A    between atoms: _86  and  _87
REMARK   39  A    between atoms: _87  and  _88
REMARK   40  A    between atoms: _92  and  _94
REMARK   41  A    between atoms: _94  and  _95
REMARK   42  A    between atoms: _94  and  _97
REMARK   43  A    between atoms: _100  and  _102
REMARK   44  A    between atoms: _102  and  _103
REMARK   45  A    between atoms: _102  and  _105
REMARK   46  A    between atoms: _105  and  _106
REMARK   47  A    between atoms: _112  and  _114
REMARK   48  A    between atoms: _114  and  _115
REMARK   49  A    between atoms: _114  and  _117
REMARK   50  A    between atoms: _117  and  _118
REMARK   51  A    between atoms: _123  and  _124
REMARK   52  A    between atoms: _126  and  _128
REMARK   53  A    between atoms: _128  and  _129
REMARK   54  A    between atoms: _132  and  _134
REMARK   55  A    between atoms: _134  and  _135
REMARK   56  A    between atoms: _134  and  _137
REMARK   57  A    between atoms: _137  and  _138
REMARK   58  A    between atoms: _138  and  _139
REMARK   59  A    between atoms: _141  and  _143
REMARK   60  A    between atoms: _143  and  _144
REMARK   61  A    between atoms: _143  and  _146
REMARK   62  A    between atoms: _146  and  _147
REMARK   63  A    between atoms: _147  and  _148
REMARK   64  A    between atoms: _148  and  _149
REMARK   65  A    between atoms: _149  and  _150
REMARK   66  A    between atoms: _154  and  _156
REMARK   67  A    between atoms: _156  and  _157
REMARK   68  A    between atoms: _156  and  _159
REMARK   69  A    between atoms: _162  and  _164
REMARK   70  A    between atoms: _164  and  _165
REMARK   71  A    between atoms: _164  and  _167
REMARK   72  A    between atoms: _167  and  _168
REMARK   73  A    between atoms: _171  and  _173
REMARK   74  A    between atoms: _173  and  _174
REMARK   75  A    between atoms: _173  and  _176
REMARK   76  A    between atoms: _176  and  _177
REMARK   77  A    between atoms: _177  and  _178
REMARK   78  A    between atoms: _178  and  _179
REMARK   79  A    between atoms: _179  and  _180
REMARK   80  A    between atoms: _184  and  _186
REMARK   81  A    between atoms: _186  and  _187
REMARK   82  A    between atoms: _186  and  _189
REMARK   83  A    between atoms: _189  and  _190
REMARK   84  A    between atoms: _190  and  _191
REMARK   85  A    between atoms: _191  and  _192
REMARK   86  A    between atoms: _192  and  _193
REMARK   87  A    between atoms: _197  and  _199
REMARK   88  A    between atoms: _199  and  _200
REMARK   89  A    between atoms: _203  and  _205
REMARK   90  A    between atoms: _205  and  _206
REMARK   91  A    between atoms: _205  and  _208
REMARK   92  A    between atoms: _208  and  _209
REMARK   93  A    between atoms: _212  and  _214
REMARK   94  A    between atoms: _214  and  _215
REMARK   95  A    between atoms: _214  and  _217
REMARK   96  A    between atoms: _217  and  _218
REMARK   97  A    between atoms: _221  and  _223
REMARK   98  A    between atoms: _223  and  _224
REMARK   99  A    between atoms: _223  and  _226
REMARK  100  A    between atoms: _229  and  _231
REMARK  101  A    between atoms: _231  and  _232
REMARK  102  A    between atoms: _231  and  _234
REMARK  103  A    between atoms: _234  and  _235
REMARK  104  A    between atoms: _235  and  _236
REMARK  105  A    between atoms: _236  and  _237
REMARK  106  A    between atoms: _237  and  _238
REMARK  107  A    between atoms: _242  and  _244
REMARK  108  A    between atoms: _244  and  _245
REMARK  109  A    between atoms: _244  and  _247
REMARK  110  A    between atoms: _247  and  _248
REMARK  111  A    between atoms: _251  and  _253
REMARK  112  A    between atoms: _253  and  _254
REMARK  113  A    between atoms: _253  and  _256
REMARK  114  A    between atoms: _256  and  _257
REMARK  115  A    between atoms: _262  and  _264
REMARK  116  A    between atoms: _264  and  _265
REMARK  117  A    between atoms: _264  and  _267
REMARK  118  A    between atoms: _267  and  _268
REMARK  119  A    between atoms: _271  and  _273
REMARK  120  A    between atoms: _273  and  _274
REMARK  121  A    between atoms: _273  and  _276
REMARK  122  A    between atoms: _276  and  _277
REMARK  123  A    between atoms: _280  and  _282
REMARK  124  A    between atoms: _282  and  _283
REMARK  125  A    between atoms: _282  and  _285
REMARK  126  A    between atoms: _285  and  _286
REMARK  127  A    between atoms: _289  and  _291
REMARK  128  A    between atoms: _291  and  _292
REMARK  129  A    between atoms: _291  and  _294
REMARK  130  A    between atoms: _294  and  _295
REMARK  131  A    between atoms: _298  and  _300
REMARK  132  A    between atoms: _300  and  _301
REMARK  133  A    between atoms: _300  and  _303
REMARK  134  A    between atoms: _303  and  _304
REMARK  135  A    between atoms: _307  and  _309
REMARK  136  A    between atoms: _309  and  _310
REMARK  137  A    between atoms: _309  and  _312
REMARK  138  A    between atoms: _312  and  _313
REMARK  139  A    between atoms: _319  and  _321
REMARK  140  A    between atoms: _321  and  _322
REMARK  141  A    between atoms: _321  and  _324
REMARK  142  A    between atoms: _324  and  _325
REMARK  143  A    between atoms: _328  and  _330
REMARK  144  A    between atoms: _330  and  _331
REMARK  145  A    between atoms: _330  and  _333
REMARK  146  A    between atoms: _333  and  _334
REMARK  147  A    between atoms: _334  and  _335
REMARK  148  A    between atoms: _335  and  _336
REMARK  149  A    between atoms: _345  and  _347
REMARK  150  A    between atoms: _347  and  _348
REMARK  151  A    between atoms: _350  and  _352
REMARK  152  A    between atoms: _352  and  _353
REMARK  153  A    between atoms: _355  and  _357
REMARK  154  A    between atoms: _357  and  _358
REMARK  155  A    between atoms: _357  and  _360
REMARK  156  A    between atoms: _360  and  _361
REMARK  157  A    between atoms: _364  and  _366
REMARK  158  A    between atoms: _366  and  _367
REMARK  159  A    between atoms: _366  and  _369
REMARK  160  A    between atoms: _369  and  _370
REMARK  161  A    between atoms: _373  and  _375
REMARK  162  A    between atoms: _375  and  _376
REMARK  163  A    between atoms: _375  and  _378
REMARK  164  A    between atoms: _378  and  _379
REMARK  165  A    between atoms: _385  and  _387
REMARK  166  A    between atoms: _387  and  _388
REMARK  167  A    between atoms: _387  and  _390
REMARK  168  A    between atoms: _390  and  _391
REMARK  169  A    between atoms: _394  and  _396
REMARK  170  A    between atoms: _396  and  _397
REMARK  171  A    between atoms: _396  and  _399
REMARK  172  A    between atoms: _399  and  _400
REMARK  173  A    between atoms: _400  and  _401
REMARK  174  A    between atoms: _401  and  _402
REMARK  175  A    between atoms: _402  and  _403
REMARK  176  A    between atoms: _408  and  _409
REMARK  177  A    between atoms: _414  and  _416
REMARK  178  A    between atoms: _416  and  _417
REMARK  179  A    between atoms: _416  and  _419
REMARK  180  A    between atoms: _419  and  _420
REMARK  181  A    between atoms: _420  and  _421
REMARK  182  A    between atoms: _424  and  _426
REMARK  183  A    between atoms: _426  and  _427
REMARK  184  A    between atoms: _426  and  _429
REMARK  185  A    between atoms: _429  and  _430
REMARK  186  A    between atoms: _435  and  _437
REMARK  187  A    between atoms: _437  and  _438
REMARK  188  A    between atoms: _437  and  _440
REMARK  189  A    between atoms: _440  and  _441
REMARK  190  A    between atoms: _444  and  _446
REMARK  191  A    between atoms: _446  and  _447
REMARK  192  A    between atoms: _446  and  _449
REMARK  193  A    between atoms: _449  and  _450
REMARK  194  A    between atoms: _453  and  _455
REMARK  195  A    between atoms: _455  and  _456
REMARK  196  A    between atoms: _455  and  _458
REMARK  197  A    between atoms: _458  and  _459
REMARK  198  A    between atoms: _462  and  _464
REMARK  199  A    between atoms: _464  and  _465
REMARK  200  A    between atoms: _464  and  _467
REMARK  201  A    between atoms: _467  and  _468
REMARK  202  A    between atoms: _468  and  _469
REMARK  203  A    between atoms: _469  and  _470
REMARK  204  A    between atoms: _470  and  _471
REMARK  205  A    between atoms: _475  and  _477
REMARK  206  A    between atoms: _477  and  _478
REMARK  207  A    between atoms: _477  and  _480
REMARK  208  A    between atoms: _480  and  _481
REMARK  209  A    between atoms: _484  and  _486
REMARK  210  A    between atoms: _486  and  _487
REMARK  211  A    between atoms: _486  and  _489
REMARK  212  A    between atoms: _489  and  _490
REMARK  213  A    between atoms: _493  and  _495
REMARK  214  A    between atoms: _495  and  _496
REMARK  215  A    between atoms: _495  and  _498
REMARK  216  A    between atoms: _498  and  _499
REMARK  217  A    between atoms: _502  and  _504
REMARK  218  A    between atoms: _504  and  _505
REMARK  219  A    between atoms: _504  and  _507
REMARK  220  A    between atoms: _507  and  _508
REMARK  221  A    between atoms: _514  and  _516
REMARK  222  A    between atoms: _516  and  _517
REMARK  223  A    between atoms: _519  and  _521
REMARK  224  A    between atoms: _521  and  _522
REMARK  225  A    between atoms: _521  and  _524
REMARK  226  A    between atoms: _524  and  _525
REMARK  227  A    between atoms: _528  and  _530
REMARK  228  A    between atoms: _530  and  _531
REMARK  229  A    between atoms: _530  and  _533
REMARK  230  A    between atoms: _533  and  _534
REMARK  231  A    between atoms: _536  and  _538
REMARK  232  A    between atoms: _538  and  _539
REMARK  233  A    between atoms: _538  and  _541
REMARK  234  A    between atoms: _541  and  _542
REMARK  235  A    between atoms: _542  and  _543
REMARK  236  A    between atoms: _543  and  _544
REMARK  237  A    between atoms: _544  and  _545
REMARK                            x       y       z     vdW  Elec       q    Type
REMARK                         _______ _______ _______ _____ _____    ______ ____
ROOT
ATOM      1  O   HOH     1      25.143   0.296   5.678  0.00  0.00    +0.000 OA
ENDROOT
TORSDOF 0
REMARK  Name = ../refined-set-2016/3ubd/3ubd_pocket.pdb
REMARK  237 active torsions:
REMARK  status: ('A' for Active; 'I' for Inactive)
REMARK    1  A    between atoms: _1  and  _5
REMARK    2  A    between atoms: _5  and  _6
REMARK    3  A    between atoms: _5  and  _8
REMARK    4  A    between atoms: _8  and  _9
REMARK    5  A    between atoms: _9  and  _10
REMARK    6  A    between atoms: _13  and  _15
REMARK    7  A    between atoms: _15  and  _16
REMARK    8  A    between atoms: _15  and  _18
REMARK    9  A    between atoms: _18  and  _19
REMARK   10  A    between atoms: _22  and  _24
REMARK   11  A    between atoms: _24  and  _25
REMARK   12  A    between atoms: _28  and  _30
REMARK   13  A    between atoms: _30  and  _31
REMARK   14  A    between atoms: _30  and  _33
REMARK   15  A    between atoms: _33  and  _34
REMARK   16  A    between atoms: _37  and  _39
REMARK   17  A    between atoms: _39  and  _40
REMARK   18  A    between atoms: _39  and  _42
REMARK   19  A    between atoms: _42  and  _43
REMARK   20  A    between atoms: _43  and  _44
REMARK   21  A    between atoms: _49  and  _51
REMARK   22  A    between atoms: _51  and  _52
REMARK   23  A    between atoms: _54  and  _56
REMARK   24  A    between atoms: _56  and  _57
REMARK   25  A    between atoms: _56  and  _59
REMARK   26  A    between atoms: _59  and  _60
REMARK   27  A    between atoms: _62  and  _64
REMARK   28  A    between atoms: _64  and  _65
REMARK   29  A    between atoms: _64  and  _67
REMARK   30  A    between atoms: _67  and  _68
REMARK   31  A    between atoms: _74  and  _76
REMARK   32  A    between atoms: _76  and  _77
REMARK   33  A    between atoms: _79  and  _81
REMARK   34  A    between atoms: _81  and  _82
REMARK   35  A    between atoms: _81  and  _84
REMARK   36  A    between atoms: _84  and  _85
REMARK   37  A    between atoms: _85  and  _86
REMARK   38  A    between atoms: _86  and  _87
REMARK   39  A    between atoms: _87  and  _88
REMARK   40  A    between atoms: _92  and  _94
REMARK   41  A    between atoms: _94  and  _95
REMARK   42  A    between atoms: _94  and  _97
REMARK   43  A    between atoms: _100  and  _102
REMARK   44  A    between atoms: _102  and  _103
REMARK   45  A    between atoms: _102  and  _105
REMARK   46  A    between atoms: _105  and  _106
REMARK   47  A    between atoms: _112  and  _114
REMARK   48  A    between atoms: _114  and  _115
REMARK   49  A    between atoms: _114  and  _117
REMARK   50  A    between atoms: _117  and  _118
REMARK   51  A    between atoms: _123  and  _124
REMARK   52  A    between atoms: _126  and  _128
REMARK   53  A    between atoms: _128  and  _129
REMARK   54  A    between atoms: _132  and  _134
REMARK   55  A    between atoms: _134  and  _135
REMARK   56  A    between atoms: _134  and  _137
REMARK   57  A    between atoms: _137  and  _138
REMARK   58  A    between atoms: _138  and  _139
REMARK   59  A    between atoms: _141  and  _143
REMARK   60  A    between atoms: _143  and  _144
REMARK   61  A    between atoms: _143  and  _146
REMARK   62  A    between atoms: _146  and  _147
REMARK   63  A    between atoms: _147  and  _148
REMARK   64  A    between atoms: _148  and  _149
REMARK   65  A    between atoms: _149  and  _150
REMARK   66  A    between atoms: _154  and  _156
REMARK   67  A    between atoms: _156  and  _157
REMARK   68  A    between atoms: _156  and  _159
REMARK   69  A    between atoms: _162  and  _164
REMARK   70  A    between atoms: _164  and  _165
REMARK   71  A    between atoms: _164  and  _167
REMARK   72  A    between atoms: _167  and  _168
REMARK   73  A    between atoms: _171  and  _173
REMARK   74  A    between atoms: _173  and  _174
REMARK   75  A    between atoms: _173  and  _176
REMARK   76  A    between atoms: _176  and  _177
REMARK   77  A    between atoms: _177  and  _178
REMARK   78  A    between atoms: _178  and  _179
REMARK   79  A    between atoms: _179  and  _180
REMARK   80  A    between atoms: _184  and  _186
REMARK   81  A    between atoms: _186  and  _187
REMARK   82  A    between atoms: _186  and  _189
REMARK   83  A    between atoms: _189  and  _190
REMARK   84  A    between atoms: _190  and  _191
REMARK   85  A    between atoms: _191  and  _192
REMARK   86  A    between atoms: _192  and  _193
REMARK   87  A    between atoms: _197  and  _199
REMARK   88  A    between atoms: _199  and  _200
REMARK   89  A    between atoms: _203  and  _205
REMARK   90  A    between atoms: _205  and  _206
REMARK   91  A    between atoms: _205  and  _208
REMARK   92  A    between atoms: _208  and  _209
REMARK   93  A    between atoms: _212  and  _214
REMARK   94  A    between atoms: _214  and  _215
REMARK   95  A    between atoms: _214  and  _217
REMARK   96  A    between atoms: _217  and  _218
REMARK   97  A    between atoms: _221  and  _223
REMARK   98  A    between atoms: _223  and  _224
REMARK   99  A    between atoms: _223  and  _226
REMARK  100  A    between atoms: _229  and  _231
REMARK  101  A    between atoms: _231  and  _232
REMARK  102  A    between atoms: _231  and  _234
REMARK  103  A    between atoms: _234  and  _235
REMARK  104  A    between atoms: _235  and  _236
REMARK  105  A    between atoms: _236  and  _237
REMARK  106  A    between atoms: _237  and  _238
REMARK  107  A    between atoms: _242  and  _244
REMARK  108  A    between atoms: _244  and  _245
REMARK  109  A    between atoms: _244  and  _247
REMARK  110  A    between atoms: _247  and  _248
REMARK  111  A    between atoms: _251  and  _253
REMARK  112  A    between atoms: _253  and  _254
REMARK  113  A    between atoms: _253  and  _256
REMARK  114  A    between atoms: _256  and  _257
REMARK  115  A    between atoms: _262  and  _264
REMARK  116  A    between atoms: _264  and  _265
REMARK  117  A    between atoms: _264  and  _267
REMARK  118  A    between atoms: _267  and  _268
REMARK  119  A    between atoms: _271  and  _273
REMARK  120  A    between atoms: _273  and  _274
REMARK  121  A    between atoms: _273  and  _276
REMARK  122  A    between atoms: _276  and  _277
REMARK  123  A    between atoms: _280  and  _282
REMARK  124  A    between atoms: _282  and  _283
REMARK  125  A    between atoms: _282  and  _285
REMARK  126  A    between atoms: _285  and  _286
REMARK  127  A    between atoms: _289  and  _291
REMARK  128  A    between atoms: _291  and  _292
REMARK  129  A    between atoms: _291  and  _294
REMARK  130  A    between atoms: _294  and  _295
REMARK  131  A    between atoms: _298  and  _300
REMARK  132  A    between atoms: _300  and  _301
REMARK  133  A    between atoms: _300  and  _303
REMARK  134  A    between atoms: _303  and  _304
REMARK  135  A    between atoms: _307  and  _309
REMARK  136  A    between atoms: _309  and  _310
REMARK  137  A    between atoms: _309  and  _312
REMARK  138  A    between atoms: _312  and  _313
REMARK  139  A    between atoms: _319  and  _321
REMARK  140  A    between atoms: _321  and  _322
REMARK  141  A    between atoms: _321  and  _324
REMARK  142  A    between atoms: _324  and  _325
REMARK  143  A    between atoms: _328  and  _330
REMARK  144  A    between atoms: _330  and  _331
REMARK  145  A    between atoms: _330  and  _333
REMARK  146  A    between atoms: _333  and  _334
REMARK  147  A    between atoms: _334  and  _335
REMARK  148  A    between atoms: _335  and  _336
REMARK  149  A    between atoms: _345  and  _347
REMARK  150  A    between atoms: _347  and  _348
REMARK  151  A    between atoms: _350  and  _352
REMARK  152  A    between atoms: _352  and  _353
REMARK  153  A    between atoms: _355  and  _357
REMARK  154  A    between atoms: _357  and  _358
REMARK  155  A    between atoms: _357  and  _360
REMARK  156  A    between atoms: _360  and  _361
REMARK  157  A    between atoms: _364  and  _366
REMARK  158  A    between atoms: _366  and  _367
REMARK  159  A    between atoms: _366  and  _369
REMARK  160  A    between atoms: _369  and  _370
REMARK  161  A    between atoms: _373  and  _375
REMARK  162  A    between atoms: _375  and  _376
REMARK  163  A    between atoms: _375  and  _378
REMARK  164  A    between atoms: _378  and  _379
REMARK  165  A    between atoms: _385  and  _387
REMARK  166  A    between atoms: _387  and  _388
REMARK  167  A    between atoms: _387  and  _390
REMARK  168  A    between atoms: _390  and  _391
REMARK  169  A    between atoms: _394  and  _396
REMARK  170  A    between atoms: _396  and  _397
REMARK  171  A    between atoms: _396  and  _399
REMARK  172  A    between atoms: _399  and  _400
REMARK  173  A    between atoms: _400  and  _401
REMARK  174  A    between atoms: _401  and  _402
REMARK  175  A    between atoms: _402  and  _403
REMARK  176  A    between atoms: _408  and  _409
REMARK  177  A    between atoms: _414  and  _416
REMARK  178  A    between atoms: _416  and  _417
REMARK  179  A    between atoms: _416  and  _419
REMARK  180  A    between atoms: _419  and  _420
REMARK  181  A    between atoms: _420  and  _421
REMARK  182  A    between atoms: _424  and  _426
REMARK  183  A    between atoms: _426  and  _427
REMARK  184  A    between atoms: _426  and  _429
REMARK  185  A    between atoms: _429  and  _430
REMARK  186  A    between atoms: _435  and  _437
REMARK  187  A    between atoms: _437  and  _438
REMARK  188  A    between atoms: _437  and  _440
REMARK  189  A    between atoms: _440  and  _441
REMARK  190  A    between atoms: _444  and  _446
REMARK  191  A    between atoms: _446  and  _447
REMARK  192  A    between atoms: _446  and  _449
REMARK  193  A    between atoms: _449  and  _450
REMARK  194  A    between atoms: _453  and  _455
REMARK  195  A    between atoms: _455  and  _456
REMARK  196  A    between atoms: _455  and  _458
REMARK  197  A    between atoms: _458  and  _459
REMARK  198  A    between atoms: _462  and  _464
REMARK  199  A    between atoms: _464  and  _465
REMARK  200  A    between atoms: _464  and  _467
REMARK  201  A    between atoms: _467  and  _468
REMARK  202  A    between atoms: _468  and  _469
REMARK  203  A    between atoms: _469  and  _470
REMARK  204  A    between atoms: _470  and  _471
REMARK  205  A    between atoms: _475  and  _477
REMARK  206  A    between atoms: _477  and  _478
REMARK  207  A    between atoms: _477  and  _480
REMARK  208  A    between atoms: _480  and  _481
REMARK  209  A    between atoms: _484  and  _486
REMARK  210  A    between atoms: _486  and  _487
REMARK  211  A    between atoms: _486  and  _489
REMARK  212  A    between atoms: _489  and  _490
REMARK  213  A    between atoms: _493  and  _495
REMARK  214  A    between atoms: _495  and  _496
REMARK  215  A    between atoms: _495  and  _498
REMARK  216  A    between atoms: _498  and  _499
REMARK  217  A    between atoms: _502  and  _504
REMARK  218  A    between atoms: _504  and  _505
REMARK  219  A    between atoms: _504  and  _507
REMARK  220  A    between atoms: _507  and  _508
REMARK  221  A    between atoms: _514  and  _516
REMARK  222  A    between atoms: _516  and  _517
REMARK  223  A    between atoms: _519  and  _521
REMARK  224  A    between atoms: _521  and  _522
REMARK  225  A    between atoms: _521  and  _524
REMARK  226  A    between atoms: _524  and  _525
REMARK  227  A    between atoms: _528  and  _530
REMARK  228  A    between atoms: _530  and  _531
REMARK  229  A    between atoms: _530  and  _533
REMARK  230  A    between atoms: _533  and  _534
REMARK  231  A    between atoms: _536  and  _538
REMARK  232  A    between atoms: _538  and  _539
REMARK  233  A    between atoms: _538  and  _541
REMARK  234  A    between atoms: _541  and  _542
REMARK  235  A    between atoms: _542  and  _543
REMARK  236  A    between atoms: _543  and  _544
REMARK  237  A    between atoms: _544  and  _545
REMARK                            x       y       z     vdW  Elec       q    Type
REMARK                         _______ _______ _______ _____ _____    ______ ____
ROOT
ATOM      1  O   HOH     1      44.566  -1.355  15.938  0.00  0.00    +0.000 OA
ENDROOT
TORSDOF 0
REMARK  Name = ../refined-set-2016/3ubd/3ubd_pocket.pdb
REMARK  237 active torsions:
REMARK  status: ('A' for Active; 'I' for Inactive)
REMARK    1  A    between atoms: _1  and  _5
REMARK    2  A    between atoms: _5  and  _6
REMARK    3  A    between atoms: _5  and  _8
REMARK    4  A    between atoms: _8  and  _9
REMARK    5  A    between atoms: _9  and  _10
REMARK    6  A    between atoms: _13  and  _15
REMARK    7  A    between atoms: _15  and  _16
REMARK    8  A    between atoms: _15  and  _18
REMARK    9  A    between atoms: _18  and  _19
REMARK   10  A    between atoms: _22  and  _24
REMARK   11  A    between atoms: _24  and  _25
REMARK   12  A    between atoms: _28  and  _30
REMARK   13  A    between atoms: _30  and  _31
REMARK   14  A    between atoms: _30  and  _33
REMARK   15  A    between atoms: _33  and  _34
REMARK   16  A    between atoms: _37  and  _39
REMARK   17  A    between atoms: _39  and  _40
REMARK   18  A    between atoms: _39  and  _42
REMARK   19  A    between atoms: _42  and  _43
REMARK   20  A    between atoms: _43  and  _44
REMARK   21  A    between atoms: _49  and  _51
REMARK   22  A    between atoms: _51  and  _52
REMARK   23  A    between atoms: _54  and  _56
REMARK   24  A    between atoms: _56  and  _57
REMARK   25  A    between atoms: _56  and  _59
REMARK   26  A    between atoms: _59  and  _60
REMARK   27  A    between atoms: _62  and  _64
REMARK   28  A    between atoms: _64  and  _65
REMARK   29  A    between atoms: _64  and  _67
REMARK   30  A    between atoms: _67  and  _68
REMARK   31  A    between atoms: _74  and  _76
REMARK   32  A    between atoms: _76  and  _77
REMARK   33  A    between atoms: _79  and  _81
REMARK   34  A    between atoms: _81  and  _82
REMARK   35  A    between atoms: _81  and  _84
REMARK   36  A    between atoms: _84  and  _85
REMARK   37  A    between atoms: _85  and  _86
REMARK   38  A    between atoms: _86  and  _87
REMARK   39  A    between atoms: _87  and  _88
REMARK   40  A    between atoms: _92  and  _94
REMARK   41  A    between atoms: _94  and  _95
REMARK   42  A    between atoms: _94  and  _97
REMARK   43  A    between atoms: _100  and  _102
REMARK   44  A    between atoms: _102  and  _103
REMARK   45  A    between atoms: _102  and  _105
REMARK   46  A    between atoms: _105  and  _106
REMARK   47  A    between atoms: _112  and  _114
REMARK   48  A    between atoms: _114  and  _115
REMARK   49  A    between atoms: _114  and  _117
REMARK   50  A    between atoms: _117  and  _118
REMARK   51  A    between atoms: _123  and  _124
REMARK   52  A    between atoms: _126  and  _128
REMARK   53  A    between atoms: _128  and  _129
REMARK   54  A    between atoms: _132  and  _134
REMARK   55  A    between atoms: _134  and  _135
REMARK   56  A    between atoms: _134  and  _137
REMARK   57  A    between atoms: _137  and  _138
REMARK   58  A    between atoms: _138  and  _139
REMARK   59  A    between atoms: _141  and  _143
REMARK   60  A    between atoms: _143  and  _144
REMARK   61  A    between atoms: _143  and  _146
REMARK   62  A    between atoms: _146  and  _147
REMARK   63  A    between atoms: _147  and  _148
REMARK   64  A    between atoms: _148  and  _149
REMARK   65  A    between atoms: _149  and  _150
REMARK   66  A    between atoms: _154  and  _156
REMARK   67  A    between atoms: _156  and  _157
REMARK   68  A    between atoms: _156  and  _159
REMARK   69  A    between atoms: _162  and  _164
REMARK   70  A    between atoms: _164  and  _165
REMARK   71  A    between atoms: _164  and  _167
REMARK   72  A    between atoms: _167  and  _168
REMARK   73  A    between atoms: _171  and  _173
REMARK   74  A    between atoms: _173  and  _174
REMARK   75  A    between atoms: _173  and  _176
REMARK   76  A    between atoms: _176  and  _177
REMARK   77  A    between atoms: _177  and  _178
REMARK   78  A    between atoms: _178  and  _179
REMARK   79  A    between atoms: _179  and  _180
REMARK   80  A    between atoms: _184  and  _186
REMARK   81  A    between atoms: _186  and  _187
REMARK   82  A    between atoms: _186  and  _189
REMARK   83  A    between atoms: _189  and  _190
REMARK   84  A    between atoms: _190  and  _191
REMARK   85  A    between atoms: _191  and  _192
REMARK   86  A    between atoms: _192  and  _193
REMARK   87  A    between atoms: _197  and  _199
REMARK   88  A    between atoms: _199  and  _200
REMARK   89  A    between atoms: _203  and  _205
REMARK   90  A    between atoms: _205  and  _206
REMARK   91  A    between atoms: _205  and  _208
REMARK   92  A    between atoms: _208  and  _209
REMARK   93  A    between atoms: _212  and  _214
REMARK   94  A    between atoms: _214  and  _215
REMARK   95  A    between atoms: _214  and  _217
REMARK   96  A    between atoms: _217  and  _218
REMARK   97  A    between atoms: _221  and  _223
REMARK   98  A    between atoms: _223  and  _224
REMARK   99  A    between atoms: _223  and  _226
REMARK  100  A    between atoms: _229  and  _231
REMARK  101  A    between atoms: _231  and  _232
REMARK  102  A    between atoms: _231  and  _234
REMARK  103  A    between atoms: _234  and  _235
REMARK  104  A    between atoms: _235  and  _236
REMARK  105  A    between atoms: _236  and  _237
REMARK  106  A    between atoms: _237  and  _238
REMARK  107  A    between atoms: _242  and  _244
REMARK  108  A    between atoms: _244  and  _245
REMARK  109  A    between atoms: _244  and  _247
REMARK  110  A    between atoms: _247  and  _248
REMARK  111  A    between atoms: _251  and  _253
REMARK  112  A    between atoms: _253  and  _254
REMARK  113  A    between atoms: _253  and  _256
REMARK  114  A    between atoms: _256  and  _257
REMARK  115  A    between atoms: _262  and  _264
REMARK  116  A    between atoms: _264  and  _265
REMARK  117  A    between atoms: _264  and  _267
REMARK  118  A    between atoms: _267  and  _268
REMARK  119  A    between atoms: _271  and  _273
REMARK  120  A    between atoms: _273  and  _274
REMARK  121  A    between atoms: _273  and  _276
REMARK  122  A    between atoms: _276  and  _277
REMARK  123  A    between atoms: _280  and  _282
REMARK  124  A    between atoms: _282  and  _283
REMARK  125  A    between atoms: _282  and  _285
REMARK  126  A    between atoms: _285  and  _286
REMARK  127  A    between atoms: _289  and  _291
REMARK  128  A    between atoms: _291  and  _292
REMARK  129  A    between atoms: _291  and  _294
REMARK  130  A    between atoms: _294  and  _295
REMARK  131  A    between atoms: _298  and  _300
REMARK  132  A    between atoms: _300  and  _301
REMARK  133  A    between atoms: _300  and  _303
REMARK  134  A    between atoms: _303  and  _304
REMARK  135  A    between atoms: _307  and  _309
REMARK  136  A    between atoms: _309  and  _310
REMARK  137  A    between atoms: _309  and  _312
REMARK  138  A    between atoms: _312  and  _313
REMARK  139  A    between atoms: _319  and  _321
REMARK  140  A    between atoms: _321  and  _322
REMARK  141  A    between atoms: _321  and  _324
REMARK  142  A    between atoms: _324  and  _325
REMARK  143  A    between atoms: _328  and  _330
REMARK  144  A    between atoms: _330  and  _331
REMARK  145  A    between atoms: _330  and  _333
REMARK  146  A    between atoms: _333  and  _334
REMARK  147  A    between atoms: _334  and  _335
REMARK  148  A    between atoms: _335  and  _336
REMARK  149  A    between atoms: _345  and  _347
REMARK  150  A    between atoms: _347  and  _348
REMARK  151  A    between atoms: _350  and  _352
REMARK  152  A    between atoms: _352  and  _353
REMARK  153  A    between atoms: _355  and  _357
REMARK  154  A    between atoms: _357  and  _358
REMARK  155  A    between atoms: _357  and  _360
REMARK  156  A    between atoms: _360  and  _361
REMARK  157  A    between atoms: _364  and  _366
REMARK  158  A    between atoms: _366  and  _367
REMARK  159  A    between atoms: _366  and  _369
REMARK  160  A    between atoms: _369  and  _370
REMARK  161  A    between atoms: _373  and  _375
REMARK  162  A    between atoms: _375  and  _376
REMARK  163  A    between atoms: _375  and  _378
REMARK  164  A    between atoms: _378  and  _379
REMARK  165  A    between atoms: _385  and  _387
REMARK  166  A    between atoms: _387  and  _388
REMARK  167  A    between atoms: _387  and  _390
REMARK  168  A    between atoms: _390  and  _391
REMARK  169  A    between atoms: _394  and  _396
REMARK  170  A    between atoms: _396  and  _397
REMARK  171  A    between atoms: _396  and  _399
REMARK  172  A    between atoms: _399  and  _400
REMARK  173  A    between atoms: _400  and  _401
REMARK  174  A    between atoms: _401  and  _402
REMARK  175  A    between atoms: _402  and  _403
REMARK  176  A    between atoms: _408  and  _409
REMARK  177  A    between atoms: _414  and  _416
REMARK  178  A    between atoms: _416  and  _417
REMARK  179  A    between atoms: _416  and  _419
REMARK  180  A    between atoms: _419  and  _420
REMARK  181  A    between atoms: _420  and  _421
REMARK  182  A    between atoms: _424  and  _426
REMARK  183  A    between atoms: _426  and  _427
REMARK  184  A    between atoms: _426  and  _429
REMARK  185  A    between atoms: _429  and  _430
REMARK  186  A    between atoms: _435  and  _437
REMARK  187  A    between atoms: _437  and  _438
REMARK  188  A    between atoms: _437  and  _440
REMARK  189  A    between atoms: _440  and  _441
REMARK  190  A    between atoms: _444  and  _446
REMARK  191  A    between atoms: _446  and  _447
REMARK  192  A    between atoms: _446  and  _449
REMARK  193  A    between atoms: _449  and  _450
REMARK  194  A    between atoms: _453  and  _455
REMARK  195  A    between atoms: _455  and  _456
REMARK  196  A    between atoms: _455  and  _458
REMARK  197  A    between atoms: _458  and  _459
REMARK  198  A    between atoms: _462  and  _464
REMARK  199  A    between atoms: _464  and  _465
REMARK  200  A    between atoms: _464  and  _467
REMARK  201  A    between atoms: _467  and  _468
REMARK  202  A    between atoms: _468  and  _469
REMARK  203  A    between atoms: _469  and  _470
REMARK  204  A    between atoms: _470  and  _471
REMARK  205  A    between atoms: _475  and  _477
REMARK  206  A    between atoms: _477  and  _478
REMARK  207  A    between atoms: _477  and  _480
REMARK  208  A    between atoms: _480  and  _481
REMARK  209  A    between atoms: _484  and  _486
REMARK  210  A    between atoms: _486  and  _487
REMARK  211  A    between atoms: _486  and  _489
REMARK  212  A    between atoms: _489  and  _490
REMARK  213  A    between atoms: _493  and  _495
REMARK  214  A    between atoms: _495  and  _496
REMARK  215  A    between atoms: _495  and  _498
REMARK  216  A    between atoms: _498  and  _499
REMARK  217  A    between atoms: _502  and  _504
REMARK  218  A    between atoms: _504  and  _505
REMARK  219  A    between atoms: _504  and  _507
REMARK  220  A    between atoms: _507  and  _508
REMARK  221  A    between atoms: _514  and  _516
REMARK  222  A    between atoms: _516  and  _517
REMARK  223  A    between atoms: _519  and  _521
REMARK  224  A    between atoms: _521  and  _522
REMARK  225  A    between atoms: _521  and  _524
REMARK  226  A    between atoms: _524  and  _525
REMARK  227  A    between atoms: _528  and  _530
REMARK  228  A    between atoms: _530  and  _531
REMARK  229  A    between atoms: _530  and  _533
REMARK  230  A    between atoms: _533  and  _534
REMARK  231  A    between atoms: _536  and  _538
REMARK  232  A    between atoms: _538  and  _539
REMARK  233  A    between atoms: _538  and  _541
REMARK  234  A    between atoms: _541  and  _542
REMARK  235  A    between atoms: _542  and  _543
REMARK  236  A    between atoms: _543  and  _544
REMARK  237  A    between atoms: _544  and  _545
REMARK                            x       y       z     vdW  Elec       q    Type
REMARK                         _______ _______ _______ _____ _____    ______ ____
ROOT
ATOM      1  O   HOH     1      31.326   8.526   3.067  0.00  0.00    +0.000 OA
ENDROOT
TORSDOF 0
REMARK  Name = ../refined-set-2016/3ubd/3ubd_pocket.pdb
REMARK  237 active torsions:
REMARK  status: ('A' for Active; 'I' for Inactive)
REMARK    1  A    between atoms: _1  and  _5
REMARK    2  A    between atoms: _5  and  _6
REMARK    3  A    between atoms: _5  and  _8
REMARK    4  A    between atoms: _8  and  _9
REMARK    5  A    between atoms: _9  and  _10
REMARK    6  A    between atoms: _13  and  _15
REMARK    7  A    between atoms: _15  and  _16
REMARK    8  A    between atoms: _15  and  _18
REMARK    9  A    between atoms: _18  and  _19
REMARK   10  A    between atoms: _22  and  _24
REMARK   11  A    between atoms: _24  and  _25
REMARK   12  A    between atoms: _28  and  _30
REMARK   13  A    between atoms: _30  and  _31
REMARK   14  A    between atoms: _30  and  _33
REMARK   15  A    between atoms: _33  and  _34
REMARK   16  A    between atoms: _37  and  _39
REMARK   17  A    between atoms: _39  and  _40
REMARK   18  A    between atoms: _39  and  _42
REMARK   19  A    between atoms: _42  and  _43
REMARK   20  A    between atoms: _43  and  _44
REMARK   21  A    between atoms: _49  and  _51
REMARK   22  A    between atoms: _51  and  _52
REMARK   23  A    between atoms: _54  and  _56
REMARK   24  A    between atoms: _56  and  _57
REMARK   25  A    between atoms: _56  and  _59
REMARK   26  A    between atoms: _59  and  _60
REMARK   27  A    between atoms: _62  and  _64
REMARK   28  A    between atoms: _64  and  _65
REMARK   29  A    between atoms: _64  and  _67
REMARK   30  A    between atoms: _67  and  _68
REMARK   31  A    between atoms: _74  and  _76
REMARK   32  A    between atoms: _76  and  _77
REMARK   33  A    between atoms: _79  and  _81
REMARK   34  A    between atoms: _81  and  _82
REMARK   35  A    between atoms: _81  and  _84
REMARK   36  A    between atoms: _84  and  _85
REMARK   37  A    between atoms: _85  and  _86
REMARK   38  A    between atoms: _86  and  _87
REMARK   39  A    between atoms: _87  and  _88
REMARK   40  A    between atoms: _92  and  _94
REMARK   41  A    between atoms: _94  and  _95
REMARK   42  A    between atoms: _94  and  _97
REMARK   43  A    between atoms: _100  and  _102
REMARK   44  A    between atoms: _102  and  _103
REMARK   45  A    between atoms: _102  and  _105
REMARK   46  A    between atoms: _105  and  _106
REMARK   47  A    between atoms: _112  and  _114
REMARK   48  A    between atoms: _114  and  _115
REMARK   49  A    between atoms: _114  and  _117
REMARK   50  A    between atoms: _117  and  _118
REMARK   51  A    between atoms: _123  and  _124
REMARK   52  A    between atoms: _126  and  _128
REMARK   53  A    between atoms: _128  and  _129
REMARK   54  A    between atoms: _132  and  _134
REMARK   55  A    between atoms: _134  and  _135
REMARK   56  A    between atoms: _134  and  _137
REMARK   57  A    between atoms: _137  and  _138
REMARK   58  A    between atoms: _138  and  _139
REMARK   59  A    between atoms: _141  and  _143
REMARK   60  A    between atoms: _143  and  _144
REMARK   61  A    between atoms: _143  and  _146
REMARK   62  A    between atoms: _146  and  _147
REMARK   63  A    between atoms: _147  and  _148
REMARK   64  A    between atoms: _148  and  _149
REMARK   65  A    between atoms: _149  and  _150
REMARK   66  A    between atoms: _154  and  _156
REMARK   67  A    between atoms: _156  and  _157
REMARK   68  A    between atoms: _156  and  _159
REMARK   69  A    between atoms: _162  and  _164
REMARK   70  A    between atoms: _164  and  _165
REMARK   71  A    between atoms: _164  and  _167
REMARK   72  A    between atoms: _167  and  _168
REMARK   73  A    between atoms: _171  and  _173
REMARK   74  A    between atoms: _173  and  _174
REMARK   75  A    between atoms: _173  and  _176
REMARK   76  A    between atoms: _176  and  _177
REMARK   77  A    between atoms: _177  and  _178
REMARK   78  A    between atoms: _178  and  _179
REMARK   79  A    between atoms: _179  and  _180
REMARK   80  A    between atoms: _184  and  _186
REMARK   81  A    between atoms: _186  and  _187
REMARK   82  A    between atoms: _186  and  _189
REMARK   83  A    between atoms: _189  and  _190
REMARK   84  A    between atoms: _190  and  _191
REMARK   85  A    between atoms: _191  and  _192
REMARK   86  A    between atoms: _192  and  _193
REMARK   87  A    between atoms: _197  and  _199
REMARK   88  A    between atoms: _199  and  _200
REMARK   89  A    between atoms: _203  and  _205
REMARK   90  A    between atoms: _205  and  _206
REMARK   91  A    between atoms: _205  and  _208
REMARK   92  A    between atoms: _208  and  _209
REMARK   93  A    between atoms: _212  and  _214
REMARK   94  A    between atoms: _214  and  _215
REMARK   95  A    between atoms: _214  and  _217
REMARK   96  A    between atoms: _217  and  _218
REMARK   97  A    between atoms: _221  and  _223
REMARK   98  A    between atoms: _223  and  _224
REMARK   99  A    between atoms: _223  and  _226
REMARK  100  A    between atoms: _229  and  _231
REMARK  101  A    between atoms: _231  and  _232
REMARK  102  A    between atoms: _231  and  _234
REMARK  103  A    between atoms: _234  and  _235
REMARK  104  A    between atoms: _235  and  _236
REMARK  105  A    between atoms: _236  and  _237
REMARK  106  A    between atoms: _237  and  _238
REMARK  107  A    between atoms: _242  and  _244
REMARK  108  A    between atoms: _244  and  _245
REMARK  109  A    between atoms: _244  and  _247
REMARK  110  A    between atoms: _247  and  _248
REMARK  111  A    between atoms: _251  and  _253
REMARK  112  A    between atoms: _253  and  _254
REMARK  113  A    between atoms: _253  and  _256
REMARK  114  A    between atoms: _256  and  _257
REMARK  115  A    between atoms: _262  and  _264
REMARK  116  A    between atoms: _264  and  _265
REMARK  117  A    between atoms: _264  and  _267
REMARK  118  A    between atoms: _267  and  _268
REMARK  119  A    between atoms: _271  and  _273
REMARK  120  A    between atoms: _273  and  _274
REMARK  121  A    between atoms: _273  and  _276
REMARK  122  A    between atoms: _276  and  _277
REMARK  123  A    between atoms: _280  and  _282
REMARK  124  A    between atoms: _282  and  _283
REMARK  125  A    between atoms: _282  and  _285
REMARK  126  A    between atoms: _285  and  _286
REMARK  127  A    between atoms: _289  and  _291
REMARK  128  A    between atoms: _291  and  _292
REMARK  129  A    between atoms: _291  and  _294
REMARK  130  A    between atoms: _294  and  _295
REMARK  131  A    between atoms: _298  and  _300
REMARK  132  A    between atoms: _300  and  _301
REMARK  133  A    between atoms: _300  and  _303
REMARK  134  A    between atoms: _303  and  _304
REMARK  135  A    between atoms: _307  and  _309
REMARK  136  A    between atoms: _309  and  _310
REMARK  137  A    between atoms: _309  and  _312
REMARK  138  A    between atoms: _312  and  _313
REMARK  139  A    between atoms: _319  and  _321
REMARK  140  A    between atoms: _321  and  _322
REMARK  141  A    between atoms: _321  and  _324
REMARK  142  A    between atoms: _324  and  _325
REMARK  143  A    between atoms: _328  and  _330
REMARK  144  A    between atoms: _330  and  _331
REMARK  145  A    between atoms: _330  and  _333
REMARK  146  A    between atoms: _333  and  _334
REMARK  147  A    between atoms: _334  and  _335
REMARK  148  A    between atoms: _335  and  _336
REMARK  149  A    between atoms: _345  and  _347
REMARK  150  A    between atoms: _347  and  _348
REMARK  151  A    between atoms: _350  and  _352
REMARK  152  A    between atoms: _352  and  _353
REMARK  153  A    between atoms: _355  and  _357
REMARK  154  A    between atoms: _357  and  _358
REMARK  155  A    between atoms: _357  and  _360
REMARK  156  A    between atoms: _360  and  _361
REMARK  157  A    between atoms: _364  and  _366
REMARK  158  A    between atoms: _366  and  _367
REMARK  159  A    between atoms: _366  and  _369
REMARK  160  A    between atoms: _369  and  _370
REMARK  161  A    between atoms: _373  and  _375
REMARK  162  A    between atoms: _375  and  _376
REMARK  163  A    between atoms: _375  and  _378
REMARK  164  A    between atoms: _378  and  _379
REMARK  165  A    between atoms: _385  and  _387
REMARK  166  A    between atoms: _387  and  _388
REMARK  167  A    between atoms: _387  and  _390
REMARK  168  A    between atoms: _390  and  _391
REMARK  169  A    between atoms: _394  and  _396
REMARK  170  A    between atoms: _396  and  _397
REMARK  171  A    between atoms: _396  and  _399
REMARK  172  A    between atoms: _399  and  _400
REMARK  173  A    between atoms: _400  and  _401
REMARK  174  A    between atoms: _401  and  _402
REMARK  175  A    between atoms: _402  and  _403
REMARK  176  A    between atoms: _408  and  _409
REMARK  177  A    between atoms: _414  and  _416
REMARK  178  A    between atoms: _416  and  _417
REMARK  179  A    between atoms: _416  and  _419
REMARK  180  A    between atoms: _419  and  _420
REMARK  181  A    between atoms: _420  and  _421
REMARK  182  A    between atoms: _424  and  _426
REMARK  183  A    between atoms: _426  and  _427
REMARK  184  A    between atoms: _426  and  _429
REMARK  185  A    between atoms: _429  and  _430
REMARK  186  A    between atoms: _435  and  _437
REMARK  187  A    between atoms: _437  and  _438
REMARK  188  A    between atoms: _437  and  _440
REMARK  189  A    between atoms: _440  and  _441
REMARK  190  A    between atoms: _444  and  _446
REMARK  191  A    between atoms: _446  and  _447
REMARK  192  A    between atoms: _446  and  _449
REMARK  193  A    between atoms: _449  and  _450
REMARK  194  A    between atoms: _453  and  _455
REMARK  195  A    between atoms: _455  and  _456
REMARK  196  A    between atoms: _455  and  _458
REMARK  197  A    between atoms: _458  and  _459
REMARK  198  A    between atoms: _462  and  _464
REMARK  199  A    between atoms: _464  and  _465
REMARK  200  A    between atoms: _464  and  _467
REMARK  201  A    between atoms: _467  and  _468
REMARK  202  A    between atoms: _468  and  _469
REMARK  203  A    between atoms: _469  and  _470
REMARK  204  A    between atoms: _470  and  _471
REMARK  205  A    between atoms: _475  and  _477
REMARK  206  A    between atoms: _477  and  _478
REMARK  207  A    between atoms: _477  and  _480
REMARK  208  A    between atoms: _480  and  _481
REMARK  209  A    between atoms: _484  and  _486
REMARK  210  A    between atoms: _486  and  _487
REMARK  211  A    between atoms: _486  and  _489
REMARK  212  A    between atoms: _489  and  _490
REMARK  213  A    between atoms: _493  and  _495
REMARK  214  A    between atoms: _495  and  _496
REMARK  215  A    between atoms: _495  and  _498
REMARK  216  A    between atoms: _498  and  _499
REMARK  217  A    between atoms: _502  and  _504
REMARK  218  A    between atoms: _504  and  _505
REMARK  219  A    between atoms: _504  and  _507
REMARK  220  A    between atoms: _507  and  _508
REMARK  221  A    between atoms: _514  and  _516
REMARK  222  A    between atoms: _516  and  _517
REMARK  223  A    between atoms: _519  and  _521
REMARK  224  A    between atoms: _521  and  _522
REMARK  225  A    between atoms: _521  and  _524
REMARK  226  A    between atoms: _524  and  _525
REMARK  227  A    between atoms: _528  and  _530
REMARK  228  A    between atoms: _530  and  _531
REMARK  229  A    between atoms: _530  and  _533
REMARK  230  A    between atoms: _533  and  _534
REMARK  231  A    between atoms: _536  and  _538
REMARK  232  A    between atoms: _538  and  _539
REMARK  233  A    between atoms: _538  and  _541
REMARK  234  A    between atoms: _541  and  _542
REMARK  235  A    between atoms: _542  and  _543
REMARK  236  A    between atoms: _543  and  _544
REMARK  237  A    between atoms: _544  and  _545
REMARK                            x       y       z     vdW  Elec       q    Type
REMARK                         _______ _______ _______ _____ _____    ______ ____
ROOT
ATOM      1  O   HOH     1      24.912   6.444   9.012  0.00  0.00    +0.000 OA
ENDROOT
TORSDOF 0
REMARK  Name = ../refined-set-2016/3ubd/3ubd_pocket.pdb
REMARK  237 active torsions:
REMARK  status: ('A' for Active; 'I' for Inactive)
REMARK    1  A    between atoms: _1  and  _5
REMARK    2  A    between atoms: _5  and  _6
REMARK    3  A    between atoms: _5  and  _8
REMARK    4  A    between atoms: _8  and  _9
REMARK    5  A    between atoms: _9  and  _10
REMARK    6  A    between atoms: _13  and  _15
REMARK    7  A    between atoms: _15  and  _16
REMARK    8  A    between atoms: _15  and  _18
REMARK    9  A    between atoms: _18  and  _19
REMARK   10  A    between atoms: _22  and  _24
REMARK   11  A    between atoms: _24  and  _25
REMARK   12  A    between atoms: _28  and  _30
REMARK   13  A    between atoms: _30  and  _31
REMARK   14  A    between atoms: _30  and  _33
REMARK   15  A    between atoms: _33  and  _34
REMARK   16  A    between atoms: _37  and  _39
REMARK   17  A    between atoms: _39  and  _40
REMARK   18  A    between atoms: _39  and  _42
REMARK   19  A    between atoms: _42  and  _43
REMARK   20  A    between atoms: _43  and  _44
REMARK   21  A    between atoms: _49  and  _51
REMARK   22  A    between atoms: _51  and  _52
REMARK   23  A    between atoms: _54  and  _56
REMARK   24  A    between atoms: _56  and  _57
REMARK   25  A    between atoms: _56  and  _59
REMARK   26  A    between atoms: _59  and  _60
REMARK   27  A    between atoms: _62  and  _64
REMARK   28  A    between atoms: _64  and  _65
REMARK   29  A    between atoms: _64  and  _67
REMARK   30  A    between atoms: _67  and  _68
REMARK   31  A    between atoms: _74  and  _76
REMARK   32  A    between atoms: _76  and  _77
REMARK   33  A    between atoms: _79  and  _81
REMARK   34  A    between atoms: _81  and  _82
REMARK   35  A    between atoms: _81  and  _84
REMARK   36  A    between atoms: _84  and  _85
REMARK   37  A    between atoms: _85  and  _86
REMARK   38  A    between atoms: _86  and  _87
REMARK   39  A    between atoms: _87  and  _88
REMARK   40  A    between atoms: _92  and  _94
REMARK   41  A    between atoms: _94  and  _95
REMARK   42  A    between atoms: _94  and  _97
REMARK   43  A    between atoms: _100  and  _102
REMARK   44  A    between atoms: _102  and  _103
REMARK   45  A    between atoms: _102  and  _105
REMARK   46  A    between atoms: _105  and  _106
REMARK   47  A    between atoms: _112  and  _114
REMARK   48  A    between atoms: _114  and  _115
REMARK   49  A    between atoms: _114  and  _117
REMARK   50  A    between atoms: _117  and  _118
REMARK   51  A    between atoms: _123  and  _124
REMARK   52  A    between atoms: _126  and  _128
REMARK   53  A    between atoms: _128  and  _129
REMARK   54  A    between atoms: _132  and  _134
REMARK   55  A    between atoms: _134  and  _135
REMARK   56  A    between atoms: _134  and  _137
REMARK   57  A    between atoms: _137  and  _138
REMARK   58  A    between atoms: _138  and  _139
REMARK   59  A    between atoms: _141  and  _143
REMARK   60  A    between atoms: _143  and  _144
REMARK   61  A    between atoms: _143  and  _146
REMARK   62  A    between atoms: _146  and  _147
REMARK   63  A    between atoms: _147  and  _148
REMARK   64  A    between atoms: _148  and  _149
REMARK   65  A    between atoms: _149  and  _150
REMARK   66  A    between atoms: _154  and  _156
REMARK   67  A    between atoms: _156  and  _157
REMARK   68  A    between atoms: _156  and  _159
REMARK   69  A    between atoms: _162  and  _164
REMARK   70  A    between atoms: _164  and  _165
REMARK   71  A    between atoms: _164  and  _167
REMARK   72  A    between atoms: _167  and  _168
REMARK   73  A    between atoms: _171  and  _173
REMARK   74  A    between atoms: _173  and  _174
REMARK   75  A    between atoms: _173  and  _176
REMARK   76  A    between atoms: _176  and  _177
REMARK   77  A    between atoms: _177  and  _178
REMARK   78  A    between atoms: _178  and  _179
REMARK   79  A    between atoms: _179  and  _180
REMARK   80  A    between atoms: _184  and  _186
REMARK   81  A    between atoms: _186  and  _187
REMARK   82  A    between atoms: _186  and  _189
REMARK   83  A    between atoms: _189  and  _190
REMARK   84  A    between atoms: _190  and  _191
REMARK   85  A    between atoms: _191  and  _192
REMARK   86  A    between atoms: _192  and  _193
REMARK   87  A    between atoms: _197  and  _199
REMARK   88  A    between atoms: _199  and  _200
REMARK   89  A    between atoms: _203  and  _205
REMARK   90  A    between atoms: _205  and  _206
REMARK   91  A    between atoms: _205  and  _208
REMARK   92  A    between atoms: _208  and  _209
REMARK   93  A    between atoms: _212  and  _214
REMARK   94  A    between atoms: _214  and  _215
REMARK   95  A    between atoms: _214  and  _217
REMARK   96  A    between atoms: _217  and  _218
REMARK   97  A    between atoms: _221  and  _223
REMARK   98  A    between atoms: _223  and  _224
REMARK   99  A    between atoms: _223  and  _226
REMARK  100  A    between atoms: _229  and  _231
REMARK  101  A    between atoms: _231  and  _232
REMARK  102  A    between atoms: _231  and  _234
REMARK  103  A    between atoms: _234  and  _235
REMARK  104  A    between atoms: _235  and  _236
REMARK  105  A    between atoms: _236  and  _237
REMARK  106  A    between atoms: _237  and  _238
REMARK  107  A    between atoms: _242  and  _244
REMARK  108  A    between atoms: _244  and  _245
REMARK  109  A    between atoms: _244  and  _247
REMARK  110  A    between atoms: _247  and  _248
REMARK  111  A    between atoms: _251  and  _253
REMARK  112  A    between atoms: _253  and  _254
REMARK  113  A    between atoms: _253  and  _256
REMARK  114  A    between atoms: _256  and  _257
REMARK  115  A    between atoms: _262  and  _264
REMARK  116  A    between atoms: _264  and  _265
REMARK  117  A    between atoms: _264  and  _267
REMARK  118  A    between atoms: _267  and  _268
REMARK  119  A    between atoms: _271  and  _273
REMARK  120  A    between atoms: _273  and  _274
REMARK  121  A    between atoms: _273  and  _276
REMARK  122  A    between atoms: _276  and  _277
REMARK  123  A    between atoms: _280  and  _282
REMARK  124  A    between atoms: _282  and  _283
REMARK  125  A    between atoms: _282  and  _285
REMARK  126  A    between atoms: _285  and  _286
REMARK  127  A    between atoms: _289  and  _291
REMARK  128  A    between atoms: _291  and  _292
REMARK  129  A    between atoms: _291  and  _294
REMARK  130  A    between atoms: _294  and  _295
REMARK  131  A    between atoms: _298  and  _300
REMARK  132  A    between atoms: _300  and  _301
REMARK  133  A    between atoms: _300  and  _303
REMARK  134  A    between atoms: _303  and  _304
REMARK  135  A    between atoms: _307  and  _309
REMARK  136  A    between atoms: _309  and  _310
REMARK  137  A    between atoms: _309  and  _312
REMARK  138  A    between atoms: _312  and  _313
REMARK  139  A    between atoms: _319  and  _321
REMARK  140  A    between atoms: _321  and  _322
REMARK  141  A    between atoms: _321  and  _324
REMARK  142  A    between atoms: _324  and  _325
REMARK  143  A    between atoms: _328  and  _330
REMARK  144  A    between atoms: _330  and  _331
REMARK  145  A    between atoms: _330  and  _333
REMARK  146  A    between atoms: _333  and  _334
REMARK  147  A    between atoms: _334  and  _335
REMARK  148  A    between atoms: _335  and  _336
REMARK  149  A    between atoms: _345  and  _347
REMARK  150  A    between atoms: _347  and  _348
REMARK  151  A    between atoms: _350  and  _352
REMARK  152  A    between atoms: _352  and  _353
REMARK  153  A    between atoms: _355  and  _357
REMARK  154  A    between atoms: _357  and  _358
REMARK  155  A    between atoms: _357  and  _360
REMARK  156  A    between atoms: _360  and  _361
REMARK  157  A    between atoms: _364  and  _366
REMARK  158  A    between atoms: _366  and  _367
REMARK  159  A    between atoms: _366  and  _369
REMARK  160  A    between atoms: _369  and  _370
REMARK  161  A    between atoms: _373  and  _375
REMARK  162  A    between atoms: _375  and  _376
REMARK  163  A    between atoms: _375  and  _378
REMARK  164  A    between atoms: _378  and  _379
REMARK  165  A    between atoms: _385  and  _387
REMARK  166  A    between atoms: _387  and  _388
REMARK  167  A    between atoms: _387  and  _390
REMARK  168  A    between atoms: _390  and  _391
REMARK  169  A    between atoms: _394  and  _396
REMARK  170  A    between atoms: _396  and  _397
REMARK  171  A    between atoms: _396  and  _399
REMARK  172  A    between atoms: _399  and  _400
REMARK  173  A    between atoms: _400  and  _401
REMARK  174  A    between atoms: _401  and  _402
REMARK  175  A    between atoms: _402  and  _403
REMARK  176  A    between atoms: _408  and  _409
REMARK  177  A    between atoms: _414  and  _416
REMARK  178  A    between atoms: _416  and  _417
REMARK  179  A    between atoms: _416  and  _419
REMARK  180  A    between atoms: _419  and  _420
REMARK  181  A    between atoms: _420  and  _421
REMARK  182  A    between atoms: _424  and  _426
REMARK  183  A    between atoms: _426  and  _427
REMARK  184  A    between atoms: _426  and  _429
REMARK  185  A    between atoms: _429  and  _430
REMARK  186  A    between atoms: _435  and  _437
REMARK  187  A    between atoms: _437  and  _438
REMARK  188  A    between atoms: _437  and  _440
REMARK  189  A    between atoms: _440  and  _441
REMARK  190  A    between atoms: _444  and  _446
REMARK  191  A    between atoms: _446  and  _447
REMARK  192  A    between atoms: _446  and  _449
REMARK  193  A    between atoms: _449  and  _450
REMARK  194  A    between atoms: _453  and  _455
REMARK  195  A    between atoms: _455  and  _456
REMARK  196  A    between atoms: _455  and  _458
REMARK  197  A    between atoms: _458  and  _459
REMARK  198  A    between atoms: _462  and  _464
REMARK  199  A    between atoms: _464  and  _465
REMARK  200  A    between atoms: _464  and  _467
REMARK  201  A    between atoms: _467  and  _468
REMARK  202  A    between atoms: _468  and  _469
REMARK  203  A    between atoms: _469  and  _470
REMARK  204  A    between atoms: _470  and  _471
REMARK  205  A    between atoms: _475  and  _477
REMARK  206  A    between atoms: _477  and  _478
REMARK  207  A    between atoms: _477  and  _480
REMARK  208  A    between atoms: _480  and  _481
REMARK  209  A    between atoms: _484  and  _486
REMARK  210  A    between atoms: _486  and  _487
REMARK  211  A    between atoms: _486  and  _489
REMARK  212  A    between atoms: _489  and  _490
REMARK  213  A    between atoms: _493  and  _495
REMARK  214  A    between atoms: _495  and  _496
REMARK  215  A    between atoms: _495  and  _498
REMARK  216  A    between atoms: _498  and  _499
REMARK  217  A    between atoms: _502  and  _504
REMARK  218  A    between atoms: _504  and  _505
REMARK  219  A    between atoms: _504  and  _507
REMARK  220  A    between atoms: _507  and  _508
REMARK  221  A    between atoms: _514  and  _516
REMARK  222  A    between atoms: _516  and  _517
REMARK  223  A    between atoms: _519  and  _521
REMARK  224  A    between atoms: _521  and  _522
REMARK  225  A    between atoms: _521  and  _524
REMARK  226  A    between atoms: _524  and  _525
REMARK  227  A    between atoms: _528  and  _530
REMARK  228  A    between atoms: _530  and  _531
REMARK  229  A    between atoms: _530  and  _533
REMARK  230  A    between atoms: _533  and  _534
REMARK  231  A    between atoms: _536  and  _538
REMARK  232  A    between atoms: _538  and  _539
REMARK  233  A    between atoms: _538  and  _541
REMARK  234  A    between atoms: _541  and  _542
REMARK  235  A    between atoms: _542  and  _543
REMARK  236  A    between atoms: _543  and  _544
REMARK  237  A    between atoms: _544  and  _545
REMARK                            x       y       z     vdW  Elec       q    Type
REMARK                         _______ _______ _______ _____ _____    ______ ____
ROOT
ATOM      1  O   HOH     1      33.813  10.773   0.448  0.00  0.00    +0.000 OA
ENDROOT
TORSDOF 0
REMARK  Name = ../refined-set-2016/3ubd/3ubd_pocket.pdb
REMARK  237 active torsions:
REMARK  status: ('A' for Active; 'I' for Inactive)
REMARK    1  A    between atoms: _1  and  _5
REMARK    2  A    between atoms: _5  and  _6
REMARK    3  A    between atoms: _5  and  _8
REMARK    4  A    between atoms: _8  and  _9
REMARK    5  A    between atoms: _9  and  _10
REMARK    6  A    between atoms: _13  and  _15
REMARK    7  A    between atoms: _15  and  _16
REMARK    8  A    between atoms: _15  and  _18
REMARK    9  A    between atoms: _18  and  _19
REMARK   10  A    between atoms: _22  and  _24
REMARK   11  A    between atoms: _24  and  _25
REMARK   12  A    between atoms: _28  and  _30
REMARK   13  A    between atoms: _30  and  _31
REMARK   14  A    between atoms: _30  and  _33
REMARK   15  A    between atoms: _33  and  _34
REMARK   16  A    between atoms: _37  and  _39
REMARK   17  A    between atoms: _39  and  _40
REMARK   18  A    between atoms: _39  and  _42
REMARK   19  A    between atoms: _42  and  _43
REMARK   20  A    between atoms: _43  and  _44
REMARK   21  A    between atoms: _49  and  _51
REMARK   22  A    between atoms: _51  and  _52
REMARK   23  A    between atoms: _54  and  _56
REMARK   24  A    between atoms: _56  and  _57
REMARK   25  A    between atoms: _56  and  _59
REMARK   26  A    between atoms: _59  and  _60
REMARK   27  A    between atoms: _62  and  _64
REMARK   28  A    between atoms: _64  and  _65
REMARK   29  A    between atoms: _64  and  _67
REMARK   30  A    between atoms: _67  and  _68
REMARK   31  A    between atoms: _74  and  _76
REMARK   32  A    between atoms: _76  and  _77
REMARK   33  A    between atoms: _79  and  _81
REMARK   34  A    between atoms: _81  and  _82
REMARK   35  A    between atoms: _81  and  _84
REMARK   36  A    between atoms: _84  and  _85
REMARK   37  A    between atoms: _85  and  _86
REMARK   38  A    between atoms: _86  and  _87
REMARK   39  A    between atoms: _87  and  _88
REMARK   40  A    between atoms: _92  and  _94
REMARK   41  A    between atoms: _94  and  _95
REMARK   42  A    between atoms: _94  and  _97
REMARK   43  A    between atoms: _100  and  _102
REMARK   44  A    between atoms: _102  and  _103
REMARK   45  A    between atoms: _102  and  _105
REMARK   46  A    between atoms: _105  and  _106
REMARK   47  A    between atoms: _112  and  _114
REMARK   48  A    between atoms: _114  and  _115
REMARK   49  A    between atoms: _114  and  _117
REMARK   50  A    between atoms: _117  and  _118
REMARK   51  A    between atoms: _123  and  _124
REMARK   52  A    between atoms: _126  and  _128
REMARK   53  A    between atoms: _128  and  _129
REMARK   54  A    between atoms: _132  and  _134
REMARK   55  A    between atoms: _134  and  _135
REMARK   56  A    between atoms: _134  and  _137
REMARK   57  A    between atoms: _137  and  _138
REMARK   58  A    between atoms: _138  and  _139
REMARK   59  A    between atoms: _141  and  _143
REMARK   60  A    between atoms: _143  and  _144
REMARK   61  A    between atoms: _143  and  _146
REMARK   62  A    between atoms: _146  and  _147
REMARK   63  A    between atoms: _147  and  _148
REMARK   64  A    between atoms: _148  and  _149
REMARK   65  A    between atoms: _149  and  _150
REMARK   66  A    between atoms: _154  and  _156
REMARK   67  A    between atoms: _156  and  _157
REMARK   68  A    between atoms: _156  and  _159
REMARK   69  A    between atoms: _162  and  _164
REMARK   70  A    between atoms: _164  and  _165
REMARK   71  A    between atoms: _164  and  _167
REMARK   72  A    between atoms: _167  and  _168
REMARK   73  A    between atoms: _171  and  _173
REMARK   74  A    between atoms: _173  and  _174
REMARK   75  A    between atoms: _173  and  _176
REMARK   76  A    between atoms: _176  and  _177
REMARK   77  A    between atoms: _177  and  _178
REMARK   78  A    between atoms: _178  and  _179
REMARK   79  A    between atoms: _179  and  _180
REMARK   80  A    between atoms: _184  and  _186
REMARK   81  A    between atoms: _186  and  _187
REMARK   82  A    between atoms: _186  and  _189
REMARK   83  A    between atoms: _189  and  _190
REMARK   84  A    between atoms: _190  and  _191
REMARK   85  A    between atoms: _191  and  _192
REMARK   86  A    between atoms: _192  and  _193
REMARK   87  A    between atoms: _197  and  _199
REMARK   88  A    between atoms: _199  and  _200
REMARK   89  A    between atoms: _203  and  _205
REMARK   90  A    between atoms: _205  and  _206
REMARK   91  A    between atoms: _205  and  _208
REMARK   92  A    between atoms: _208  and  _209
REMARK   93  A    between atoms: _212  and  _214
REMARK   94  A    between atoms: _214  and  _215
REMARK   95  A    between atoms: _214  and  _217
REMARK   96  A    between atoms: _217  and  _218
REMARK   97  A    between atoms: _221  and  _223
REMARK   98  A    between atoms: _223  and  _224
REMARK   99  A    between atoms: _223  and  _226
REMARK  100  A    between atoms: _229  and  _231
REMARK  101  A    between atoms: _231  and  _232
REMARK  102  A    between atoms: _231  and  _234
REMARK  103  A    between atoms: _234  and  _235
REMARK  104  A    between atoms: _235  and  _236
REMARK  105  A    between atoms: _236  and  _237
REMARK  106  A    between atoms: _237  and  _238
REMARK  107  A    between atoms: _242  and  _244
REMARK  108  A    between atoms: _244  and  _245
REMARK  109  A    between atoms: _244  and  _247
REMARK  110  A    between atoms: _247  and  _248
REMARK  111  A    between atoms: _251  and  _253
REMARK  112  A    between atoms: _253  and  _254
REMARK  113  A    between atoms: _253  and  _256
REMARK  114  A    between atoms: _256  and  _257
REMARK  115  A    between atoms: _262  and  _264
REMARK  116  A    between atoms: _264  and  _265
REMARK  117  A    between atoms: _264  and  _267
REMARK  118  A    between atoms: _267  and  _268
REMARK  119  A    between atoms: _271  and  _273
REMARK  120  A    between atoms: _273  and  _274
REMARK  121  A    between atoms: _273  and  _276
REMARK  122  A    between atoms: _276  and  _277
REMARK  123  A    between atoms: _280  and  _282
REMARK  124  A    between atoms: _282  and  _283
REMARK  125  A    between atoms: _282  and  _285
REMARK  126  A    between atoms: _285  and  _286
REMARK  127  A    between atoms: _289  and  _291
REMARK  128  A    between atoms: _291  and  _292
REMARK  129  A    between atoms: _291  and  _294
REMARK  130  A    between atoms: _294  and  _295
REMARK  131  A    between atoms: _298  and  _300
REMARK  132  A    between atoms: _300  and  _301
REMARK  133  A    between atoms: _300  and  _303
REMARK  134  A    between atoms: _303  and  _304
REMARK  135  A    between atoms: _307  and  _309
REMARK  136  A    between atoms: _309  and  _310
REMARK  137  A    between atoms: _309  and  _312
REMARK  138  A    between atoms: _312  and  _313
REMARK  139  A    between atoms: _319  and  _321
REMARK  140  A    between atoms: _321  and  _322
REMARK  141  A    between atoms: _321  and  _324
REMARK  142  A    between atoms: _324  and  _325
REMARK  143  A    between atoms: _328  and  _330
REMARK  144  A    between atoms: _330  and  _331
REMARK  145  A    between atoms: _330  and  _333
REMARK  146  A    between atoms: _333  and  _334
REMARK  147  A    between atoms: _334  and  _335
REMARK  148  A    between atoms: _335  and  _336
REMARK  149  A    between atoms: _345  and  _347
REMARK  150  A    between atoms: _347  and  _348
REMARK  151  A    between atoms: _350  and  _352
REMARK  152  A    between atoms: _352  and  _353
REMARK  153  A    between atoms: _355  and  _357
REMARK  154  A    between atoms: _357  and  _358
REMARK  155  A    between atoms: _357  and  _360
REMARK  156  A    between atoms: _360  and  _361
REMARK  157  A    between atoms: _364  and  _366
REMARK  158  A    between atoms: _366  and  _367
REMARK  159  A    between atoms: _366  and  _369
REMARK  160  A    between atoms: _369  and  _370
REMARK  161  A    between atoms: _373  and  _375
REMARK  162  A    between atoms: _375  and  _376
REMARK  163  A    between atoms: _375  and  _378
REMARK  164  A    between atoms: _378  and  _379
REMARK  165  A    between atoms: _385  and  _387
REMARK  166  A    between atoms: _387  and  _388
REMARK  167  A    between atoms: _387  and  _390
REMARK  168  A    between atoms: _390  and  _391
REMARK  169  A    between atoms: _394  and  _396
REMARK  170  A    between atoms: _396  and  _397
REMARK  171  A    between atoms: _396  and  _399
REMARK  172  A    between atoms: _399  and  _400
REMARK  173  A    between atoms: _400  and  _401
REMARK  174  A    between atoms: _401  and  _402
REMARK  175  A    between atoms: _402  and  _403
REMARK  176  A    between atoms: _408  and  _409
REMARK  177  A    between atoms: _414  and  _416
REMARK  178  A    between atoms: _416  and  _417
REMARK  179  A    between atoms: _416  and  _419
REMARK  180  A    between atoms: _419  and  _420
REMARK  181  A    between atoms: _420  and  _421
REMARK  182  A    between atoms: _424  and  _426
REMARK  183  A    between atoms: _426  and  _427
REMARK  184  A    between atoms: _426  and  _429
REMARK  185  A    between atoms: _429  and  _430
REMARK  186  A    between atoms: _435  and  _437
REMARK  187  A    between atoms: _437  and  _438
REMARK  188  A    between atoms: _437  and  _440
REMARK  189  A    between atoms: _440  and  _441
REMARK  190  A    between atoms: _444  and  _446
REMARK  191  A    between atoms: _446  and  _447
REMARK  192  A    between atoms: _446  and  _449
REMARK  193  A    between atoms: _449  and  _450
REMARK  194  A    between atoms: _453  and  _455
REMARK  195  A    between atoms: _455  and  _456
REMARK  196  A    between atoms: _455  and  _458
REMARK  197  A    between atoms: _458  and  _459
REMARK  198  A    between atoms: _462  and  _464
REMARK  199  A    between atoms: _464  and  _465
REMARK  200  A    between atoms: _464  and  _467
REMARK  201  A    between atoms: _467  and  _468
REMARK  202  A    between atoms: _468  and  _469
REMARK  203  A    between atoms: _469  and  _470
REMARK  204  A    between atoms: _470  and  _471
REMARK  205  A    between atoms: _475  and  _477
REMARK  206  A    between atoms: _477  and  _478
REMARK  207  A    between atoms: _477  and  _480
REMARK  208  A    between atoms: _480  and  _481
REMARK  209  A    between atoms: _484  and  _486
REMARK  210  A    between atoms: _486  and  _487
REMARK  211  A    between atoms: _486  and  _489
REMARK  212  A    between atoms: _489  and  _490
REMARK  213  A    between atoms: _493  and  _495
REMARK  214  A    between atoms: _495  and  _496
REMARK  215  A    between atoms: _495  and  _498
REMARK  216  A    between atoms: _498  and  _499
REMARK  217  A    between atoms: _502  and  _504
REMARK  218  A    between atoms: _504  and  _505
REMARK  219  A    between atoms: _504  and  _507
REMARK  220  A    between atoms: _507  and  _508
REMARK  221  A    between atoms: _514  and  _516
REMARK  222  A    between atoms: _516  and  _517
REMARK  223  A    between atoms: _519  and  _521
REMARK  224  A    between atoms: _521  and  _522
REMARK  225  A    between atoms: _521  and  _524
REMARK  226  A    between atoms: _524  and  _525
REMARK  227  A    between atoms: _528  and  _530
REMARK  228  A    between atoms: _530  and  _531
REMARK  229  A    between atoms: _530  and  _533
REMARK  230  A    between atoms: _533  and  _534
REMARK  231  A    between atoms: _536  and  _538
REMARK  232  A    between atoms: _538  and  _539
REMARK  233  A    between atoms: _538  and  _541
REMARK  234  A    between atoms: _541  and  _542
REMARK  235  A    between atoms: _542  and  _543
REMARK  236  A    between atoms: _543  and  _544
REMARK  237  A    between atoms: _544  and  _545
REMARK                            x       y       z     vdW  Elec       q    Type
REMARK                         _______ _______ _______ _____ _____    ______ ____
ROOT
ATOM      1  O   HOH     1      24.566   1.073  10.371  0.00  0.00    +0.000 OA
ENDROOT
TORSDOF 0
REMARK  Name = ../refined-set-2016/3ubd/3ubd_pocket.pdb
REMARK  237 active torsions:
REMARK  status: ('A' for Active; 'I' for Inactive)
REMARK    1  A    between atoms: _1  and  _5
REMARK    2  A    between atoms: _5  and  _6
REMARK    3  A    between atoms: _5  and  _8
REMARK    4  A    between atoms: _8  and  _9
REMARK    5  A    between atoms: _9  and  _10
REMARK    6  A    between atoms: _13  and  _15
REMARK    7  A    between atoms: _15  and  _16
REMARK    8  A    between atoms: _15  and  _18
REMARK    9  A    between atoms: _18  and  _19
REMARK   10  A    between atoms: _22  and  _24
REMARK   11  A    between atoms: _24  and  _25
REMARK   12  A    between atoms: _28  and  _30
REMARK   13  A    between atoms: _30  and  _31
REMARK   14  A    between atoms: _30  and  _33
REMARK   15  A    between atoms: _33  and  _34
REMARK   16  A    between atoms: _37  and  _39
REMARK   17  A    between atoms: _39  and  _40
REMARK   18  A    between atoms: _39  and  _42
REMARK   19  A    between atoms: _42  and  _43
REMARK   20  A    between atoms: _43  and  _44
REMARK   21  A    between atoms: _49  and  _51
REMARK   22  A    between atoms: _51  and  _52
REMARK   23  A    between atoms: _54  and  _56
REMARK   24  A    between atoms: _56  and  _57
REMARK   25  A    between atoms: _56  and  _59
REMARK   26  A    between atoms: _59  and  _60
REMARK   27  A    between atoms: _62  and  _64
REMARK   28  A    between atoms: _64  and  _65
REMARK   29  A    between atoms: _64  and  _67
REMARK   30  A    between atoms: _67  and  _68
REMARK   31  A    between atoms: _74  and  _76
REMARK   32  A    between atoms: _76  and  _77
REMARK   33  A    between atoms: _79  and  _81
REMARK   34  A    between atoms: _81  and  _82
REMARK   35  A    between atoms: _81  and  _84
REMARK   36  A    between atoms: _84  and  _85
REMARK   37  A    between atoms: _85  and  _86
REMARK   38  A    between atoms: _86  and  _87
REMARK   39  A    between atoms: _87  and  _88
REMARK   40  A    between atoms: _92  and  _94
REMARK   41  A    between atoms: _94  and  _95
REMARK   42  A    between atoms: _94  and  _97
REMARK   43  A    between atoms: _100  and  _102
REMARK   44  A    between atoms: _102  and  _103
REMARK   45  A    between atoms: _102  and  _105
REMARK   46  A    between atoms: _105  and  _106
REMARK   47  A    between atoms: _112  and  _114
REMARK   48  A    between atoms: _114  and  _115
REMARK   49  A    between atoms: _114  and  _117
REMARK   50  A    between atoms: _117  and  _118
REMARK   51  A    between atoms: _123  and  _124
REMARK   52  A    between atoms: _126  and  _128
REMARK   53  A    between atoms: _128  and  _129
REMARK   54  A    between atoms: _132  and  _134
REMARK   55  A    between atoms: _134  and  _135
REMARK   56  A    between atoms: _134  and  _137
REMARK   57  A    between atoms: _137  and  _138
REMARK   58  A    between atoms: _138  and  _139
REMARK   59  A    between atoms: _141  and  _143
REMARK   60  A    between atoms: _143  and  _144
REMARK   61  A    between atoms: _143  and  _146
REMARK   62  A    between atoms: _146  and  _147
REMARK   63  A    between atoms: _147  and  _148
REMARK   64  A    between atoms: _148  and  _149
REMARK   65  A    between atoms: _149  and  _150
REMARK   66  A    between atoms: _154  and  _156
REMARK   67  A    between atoms: _156  and  _157
REMARK   68  A    between atoms: _156  and  _159
REMARK   69  A    between atoms: _162  and  _164
REMARK   70  A    between atoms: _164  and  _165
REMARK   71  A    between atoms: _164  and  _167
REMARK   72  A    between atoms: _167  and  _168
REMARK   73  A    between atoms: _171  and  _173
REMARK   74  A    between atoms: _173  and  _174
REMARK   75  A    between atoms: _173  and  _176
REMARK   76  A    between atoms: _176  and  _177
REMARK   77  A    between atoms: _177  and  _178
REMARK   78  A    between atoms: _178  and  _179
REMARK   79  A    between atoms: _179  and  _180
REMARK   80  A    between atoms: _184  and  _186
REMARK   81  A    between atoms: _186  and  _187
REMARK   82  A    between atoms: _186  and  _189
REMARK   83  A    between atoms: _189  and  _190
REMARK   84  A    between atoms: _190  and  _191
REMARK   85  A    between atoms: _191  and  _192
REMARK   86  A    between atoms: _192  and  _193
REMARK   87  A    between atoms: _197  and  _199
REMARK   88  A    between atoms: _199  and  _200
REMARK   89  A    between atoms: _203  and  _205
REMARK   90  A    between atoms: _205  and  _206
REMARK   91  A    between atoms: _205  and  _208
REMARK   92  A    between atoms: _208  and  _209
REMARK   93  A    between atoms: _212  and  _214
REMARK   94  A    between atoms: _214  and  _215
REMARK   95  A    between atoms: _214  and  _217
REMARK   96  A    between atoms: _217  and  _218
REMARK   97  A    between atoms: _221  and  _223
REMARK   98  A    between atoms: _223  and  _224
REMARK   99  A    between atoms: _223  and  _226
REMARK  100  A    between atoms: _229  and  _231
REMARK  101  A    between atoms: _231  and  _232
REMARK  102  A    between atoms: _231  and  _234
REMARK  103  A    between atoms: _234  and  _235
REMARK  104  A    between atoms: _235  and  _236
REMARK  105  A    between atoms: _236  and  _237
REMARK  106  A    between atoms: _237  and  _238
REMARK  107  A    between atoms: _242  and  _244
REMARK  108  A    between atoms: _244  and  _245
REMARK  109  A    between atoms: _244  and  _247
REMARK  110  A    between atoms: _247  and  _248
REMARK  111  A    between atoms: _251  and  _253
REMARK  112  A    between atoms: _253  and  _254
REMARK  113  A    between atoms: _253  and  _256
REMARK  114  A    between atoms: _256  and  _257
REMARK  115  A    between atoms: _262  and  _264
REMARK  116  A    between atoms: _264  and  _265
REMARK  117  A    between atoms: _264  and  _267
REMARK  118  A    between atoms: _267  and  _268
REMARK  119  A    between atoms: _271  and  _273
REMARK  120  A    between atoms: _273  and  _274
REMARK  121  A    between atoms: _273  and  _276
REMARK  122  A    between atoms: _276  and  _277
REMARK  123  A    between atoms: _280  and  _282
REMARK  124  A    between atoms: _282  and  _283
REMARK  125  A    between atoms: _282  and  _285
REMARK  126  A    between atoms: _285  and  _286
REMARK  127  A    between atoms: _289  and  _291
REMARK  128  A    between atoms: _291  and  _292
REMARK  129  A    between atoms: _291  and  _294
REMARK  130  A    between atoms: _294  and  _295
REMARK  131  A    between atoms: _298  and  _300
REMARK  132  A    between atoms: _300  and  _301
REMARK  133  A    between atoms: _300  and  _303
REMARK  134  A    between atoms: _303  and  _304
REMARK  135  A    between atoms: _307  and  _309
REMARK  136  A    between atoms: _309  and  _310
REMARK  137  A    between atoms: _309  and  _312
REMARK  138  A    between atoms: _312  and  _313
REMARK  139  A    between atoms: _319  and  _321
REMARK  140  A    between atoms: _321  and  _322
REMARK  141  A    between atoms: _321  and  _324
REMARK  142  A    between atoms: _324  and  _325
REMARK  143  A    between atoms: _328  and  _330
REMARK  144  A    between atoms: _330  and  _331
REMARK  145  A    between atoms: _330  and  _333
REMARK  146  A    between atoms: _333  and  _334
REMARK  147  A    between atoms: _334  and  _335
REMARK  148  A    between atoms: _335  and  _336
REMARK  149  A    between atoms: _345  and  _347
REMARK  150  A    between atoms: _347  and  _348
REMARK  151  A    between atoms: _350  and  _352
REMARK  152  A    between atoms: _352  and  _353
REMARK  153  A    between atoms: _355  and  _357
REMARK  154  A    between atoms: _357  and  _358
REMARK  155  A    between atoms: _357  and  _360
REMARK  156  A    between atoms: _360  and  _361
REMARK  157  A    between atoms: _364  and  _366
REMARK  158  A    between atoms: _366  and  _367
REMARK  159  A    between atoms: _366  and  _369
REMARK  160  A    between atoms: _369  and  _370
REMARK  161  A    between atoms: _373  and  _375
REMARK  162  A    between atoms: _375  and  _376
REMARK  163  A    between atoms: _375  and  _378
REMARK  164  A    between atoms: _378  and  _379
REMARK  165  A    between atoms: _385  and  _387
REMARK  166  A    between atoms: _387  and  _388
REMARK  167  A    between atoms: _387  and  _390
REMARK  168  A    between atoms: _390  and  _391
REMARK  169  A    between atoms: _394  and  _396
REMARK  170  A    between atoms: _396  and  _397
REMARK  171  A    between atoms: _396  and  _399
REMARK  172  A    between atoms: _399  and  _400
REMARK  173  A    between atoms: _400  and  _401
REMARK  174  A    between atoms: _401  and  _402
REMARK  175  A    between atoms: _402  and  _403
REMARK  176  A    between atoms: _408  and  _409
REMARK  177  A    between atoms: _414  and  _416
REMARK  178  A    between atoms: _416  and  _417
REMARK  179  A    between atoms: _416  and  _419
REMARK  180  A    between atoms: _419  and  _420
REMARK  181  A    between atoms: _420  and  _421
REMARK  182  A    between atoms: _424  and  _426
REMARK  183  A    between atoms: _426  and  _427
REMARK  184  A    between atoms: _426  and  _429
REMARK  185  A    between atoms: _429  and  _430
REMARK  186  A    between atoms: _435  and  _437
REMARK  187  A    between atoms: _437  and  _438
REMARK  188  A    between atoms: _437  and  _440
REMARK  189  A    between atoms: _440  and  _441
REMARK  190  A    between atoms: _444  and  _446
REMARK  191  A    between atoms: _446  and  _447
REMARK  192  A    between atoms: _446  and  _449
REMARK  193  A    between atoms: _449  and  _450
REMARK  194  A    between atoms: _453  and  _455
REMARK  195  A    between atoms: _455  and  _456
REMARK  196  A    between atoms: _455  and  _458
REMARK  197  A    between atoms: _458  and  _459
REMARK  198  A    between atoms: _462  and  _464
REMARK  199  A    between atoms: _464  and  _465
REMARK  200  A    between atoms: _464  and  _467
REMARK  201  A    between atoms: _467  and  _468
REMARK  202  A    between atoms: _468  and  _469
REMARK  203  A    between atoms: _469  and  _470
REMARK  204  A    between atoms: _470  and  _471
REMARK  205  A    between atoms: _475  and  _477
REMARK  206  A    between atoms: _477  and  _478
REMARK  207  A    between atoms: _477  and  _480
REMARK  208  A    between atoms: _480  and  _481
REMARK  209  A    between atoms: _484  and  _486
REMARK  210  A    between atoms: _486  and  _487
REMARK  211  A    between atoms: _486  and  _489
REMARK  212  A    between atoms: _489  and  _490
REMARK  213  A    between atoms: _493  and  _495
REMARK  214  A    between atoms: _495  and  _496
REMARK  215  A    between atoms: _495  and  _498
REMARK  216  A    between atoms: _498  and  _499
REMARK  217  A    between atoms: _502  and  _504
REMARK  218  A    between atoms: _504  and  _505
REMARK  219  A    between atoms: _504  and  _507
REMARK  220  A    between atoms: _507  and  _508
REMARK  221  A    between atoms: _514  and  _516
REMARK  222  A    between atoms: _516  and  _517
REMARK  223  A    between atoms: _519  and  _521
REMARK  224  A    between atoms: _521  and  _522
REMARK  225  A    between atoms: _521  and  _524
REMARK  226  A    between atoms: _524  and  _525
REMARK  227  A    between atoms: _528  and  _530
REMARK  228  A    between atoms: _530  and  _531
REMARK  229  A    between atoms: _530  and  _533
REMARK  230  A    between atoms: _533  and  _534
REMARK  231  A    between atoms: _536  and  _538
REMARK  232  A    between atoms: _538  and  _539
REMARK  233  A    between atoms: _538  and  _541
REMARK  234  A    between atoms: _541  and  _542
REMARK  235  A    between atoms: _542  and  _543
REMARK  236  A    between atoms: _543  and  _544
REMARK  237  A    between atoms: _544  and  _545
REMARK                            x       y       z     vdW  Elec       q    Type
REMARK                         _______ _______ _______ _____ _____    ______ ____
ROOT
ATOM      1  O   HOH     1      41.475  -3.724  17.033  0.00  0.00    +0.000 OA
ENDROOT
TORSDOF 0
REMARK  Name = ../refined-set-2016/3ubd/3ubd_pocket.pdb
REMARK  237 active torsions:
REMARK  status: ('A' for Active; 'I' for Inactive)
REMARK    1  A    between atoms: _1  and  _5
REMARK    2  A    between atoms: _5  and  _6
REMARK    3  A    between atoms: _5  and  _8
REMARK    4  A    between atoms: _8  and  _9
REMARK    5  A    between atoms: _9  and  _10
REMARK    6  A    between atoms: _13  and  _15
REMARK    7  A    between atoms: _15  and  _16
REMARK    8  A    between atoms: _15  and  _18
REMARK    9  A    between atoms: _18  and  _19
REMARK   10  A    between atoms: _22  and  _24
REMARK   11  A    between atoms: _24  and  _25
REMARK   12  A    between atoms: _28  and  _30
REMARK   13  A    between atoms: _30  and  _31
REMARK   14  A    between atoms: _30  and  _33
REMARK   15  A    between atoms: _33  and  _34
REMARK   16  A    between atoms: _37  and  _39
REMARK   17  A    between atoms: _39  and  _40
REMARK   18  A    between atoms: _39  and  _42
REMARK   19  A    between atoms: _42  and  _43
REMARK   20  A    between atoms: _43  and  _44
REMARK   21  A    between atoms: _49  and  _51
REMARK   22  A    between atoms: _51  and  _52
REMARK   23  A    between atoms: _54  and  _56
REMARK   24  A    between atoms: _56  and  _57
REMARK   25  A    between atoms: _56  and  _59
REMARK   26  A    between atoms: _59  and  _60
REMARK   27  A    between atoms: _62  and  _64
REMARK   28  A    between atoms: _64  and  _65
REMARK   29  A    between atoms: _64  and  _67
REMARK   30  A    between atoms: _67  and  _68
REMARK   31  A    between atoms: _74  and  _76
REMARK   32  A    between atoms: _76  and  _77
REMARK   33  A    between atoms: _79  and  _81
REMARK   34  A    between atoms: _81  and  _82
REMARK   35  A    between atoms: _81  and  _84
REMARK   36  A    between atoms: _84  and  _85
REMARK   37  A    between atoms: _85  and  _86
REMARK   38  A    between atoms: _86  and  _87
REMARK   39  A    between atoms: _87  and  _88
REMARK   40  A    between atoms: _92  and  _94
REMARK   41  A    between atoms: _94  and  _95
REMARK   42  A    between atoms: _94  and  _97
REMARK   43  A    between atoms: _100  and  _102
REMARK   44  A    between atoms: _102  and  _103
REMARK   45  A    between atoms: _102  and  _105
REMARK   46  A    between atoms: _105  and  _106
REMARK   47  A    between atoms: _112  and  _114
REMARK   48  A    between atoms: _114  and  _115
REMARK   49  A    between atoms: _114  and  _117
REMARK   50  A    between atoms: _117  and  _118
REMARK   51  A    between atoms: _123  and  _124
REMARK   52  A    between atoms: _126  and  _128
REMARK   53  A    between atoms: _128  and  _129
REMARK   54  A    between atoms: _132  and  _134
REMARK   55  A    between atoms: _134  and  _135
REMARK   56  A    between atoms: _134  and  _137
REMARK   57  A    between atoms: _137  and  _138
REMARK   58  A    between atoms: _138  and  _139
REMARK   59  A    between atoms: _141  and  _143
REMARK   60  A    between atoms: _143  and  _144
REMARK   61  A    between atoms: _143  and  _146
REMARK   62  A    between atoms: _146  and  _147
REMARK   63  A    between atoms: _147  and  _148
REMARK   64  A    between atoms: _148  and  _149
REMARK   65  A    between atoms: _149  and  _150
REMARK   66  A    between atoms: _154  and  _156
REMARK   67  A    between atoms: _156  and  _157
REMARK   68  A    between atoms: _156  and  _159
REMARK   69  A    between atoms: _162  and  _164
REMARK   70  A    between atoms: _164  and  _165
REMARK   71  A    between atoms: _164  and  _167
REMARK   72  A    between atoms: _167  and  _168
REMARK   73  A    between atoms: _171  and  _173
REMARK   74  A    between atoms: _173  and  _174
REMARK   75  A    between atoms: _173  and  _176
REMARK   76  A    between atoms: _176  and  _177
REMARK   77  A    between atoms: _177  and  _178
REMARK   78  A    between atoms: _178  and  _179
REMARK   79  A    between atoms: _179  and  _180
REMARK   80  A    between atoms: _184  and  _186
REMARK   81  A    between atoms: _186  and  _187
REMARK   82  A    between atoms: _186  and  _189
REMARK   83  A    between atoms: _189  and  _190
REMARK   84  A    between atoms: _190  and  _191
REMARK   85  A    between atoms: _191  and  _192
REMARK   86  A    between atoms: _192  and  _193
REMARK   87  A    between atoms: _197  and  _199
REMARK   88  A    between atoms: _199  and  _200
REMARK   89  A    between atoms: _203  and  _205
REMARK   90  A    between atoms: _205  and  _206
REMARK   91  A    between atoms: _205  and  _208
REMARK   92  A    between atoms: _208  and  _209
REMARK   93  A    between atoms: _212  and  _214
REMARK   94  A    between atoms: _214  and  _215
REMARK   95  A    between atoms: _214  and  _217
REMARK   96  A    between atoms: _217  and  _218
REMARK   97  A    between atoms: _221  and  _223
REMARK   98  A    between atoms: _223  and  _224
REMARK   99  A    between atoms: _223  and  _226
REMARK  100  A    between atoms: _229  and  _231
REMARK  101  A    between atoms: _231  and  _232
REMARK  102  A    between atoms: _231  and  _234
REMARK  103  A    between atoms: _234  and  _235
REMARK  104  A    between atoms: _235  and  _236
REMARK  105  A    between atoms: _236  and  _237
REMARK  106  A    between atoms: _237  and  _238
REMARK  107  A    between atoms: _242  and  _244
REMARK  108  A    between atoms: _244  and  _245
REMARK  109  A    between atoms: _244  and  _247
REMARK  110  A    between atoms: _247  and  _248
REMARK  111  A    between atoms: _251  and  _253
REMARK  112  A    between atoms: _253  and  _254
REMARK  113  A    between atoms: _253  and  _256
REMARK  114  A    between atoms: _256  and  _257
REMARK  115  A    between atoms: _262  and  _264
REMARK  116  A    between atoms: _264  and  _265
REMARK  117  A    between atoms: _264  and  _267
REMARK  118  A    between atoms: _267  and  _268
REMARK  119  A    between atoms: _271  and  _273
REMARK  120  A    between atoms: _273  and  _274
REMARK  121  A    between atoms: _273  and  _276
REMARK  122  A    between atoms: _276  and  _277
REMARK  123  A    between atoms: _280  and  _282
REMARK  124  A    between atoms: _282  and  _283
REMARK  125  A    between atoms: _282  and  _285
REMARK  126  A    between atoms: _285  and  _286
REMARK  127  A    between atoms: _289  and  _291
REMARK  128  A    between atoms: _291  and  _292
REMARK  129  A    between atoms: _291  and  _294
REMARK  130  A    between atoms: _294  and  _295
REMARK  131  A    between atoms: _298  and  _300
REMARK  132  A    between atoms: _300  and  _301
REMARK  133  A    between atoms: _300  and  _303
REMARK  134  A    between atoms: _303  and  _304
REMARK  135  A    between atoms: _307  and  _309
REMARK  136  A    between atoms: _309  and  _310
REMARK  137  A    between atoms: _309  and  _312
REMARK  138  A    between atoms: _312  and  _313
REMARK  139  A    between atoms: _319  and  _321
REMARK  140  A    between atoms: _321  and  _322
REMARK  141  A    between atoms: _321  and  _324
REMARK  142  A    between atoms: _324  and  _325
REMARK  143  A    between atoms: _328  and  _330
REMARK  144  A    between atoms: _330  and  _331
REMARK  145  A    between atoms: _330  and  _333
REMARK  146  A    between atoms: _333  and  _334
REMARK  147  A    between atoms: _334  and  _335
REMARK  148  A    between atoms: _335  and  _336
REMARK  149  A    between atoms: _345  and  _347
REMARK  150  A    between atoms: _347  and  _348
REMARK  151  A    between atoms: _350  and  _352
REMARK  152  A    between atoms: _352  and  _353
REMARK  153  A    between atoms: _355  and  _357
REMARK  154  A    between atoms: _357  and  _358
REMARK  155  A    between atoms: _357  and  _360
REMARK  156  A    between atoms: _360  and  _361
REMARK  157  A    between atoms: _364  and  _366
REMARK  158  A    between atoms: _366  and  _367
REMARK  159  A    between atoms: _366  and  _369
REMARK  160  A    between atoms: _369  and  _370
REMARK  161  A    between atoms: _373  and  _375
REMARK  162  A    between atoms: _375  and  _376
REMARK  163  A    between atoms: _375  and  _378
REMARK  164  A    between atoms: _378  and  _379
REMARK  165  A    between atoms: _385  and  _387
REMARK  166  A    between atoms: _387  and  _388
REMARK  167  A    between atoms: _387  and  _390
REMARK  168  A    between atoms: _390  and  _391
REMARK  169  A    between atoms: _394  and  _396
REMARK  170  A    between atoms: _396  and  _397
REMARK  171  A    between atoms: _396  and  _399
REMARK  172  A    between atoms: _399  and  _400
REMARK  173  A    between atoms: _400  and  _401
REMARK  174  A    between atoms: _401  and  _402
REMARK  175  A    between atoms: _402  and  _403
REMARK  176  A    between atoms: _408  and  _409
REMARK  177  A    between atoms: _414  and  _416
REMARK  178  A    between atoms: _416  and  _417
REMARK  179  A    between atoms: _416  and  _419
REMARK  180  A    between atoms: _419  and  _420
REMARK  181  A    between atoms: _420  and  _421
REMARK  182  A    between atoms: _424  and  _426
REMARK  183  A    between atoms: _426  and  _427
REMARK  184  A    between atoms: _426  and  _429
REMARK  185  A    between atoms: _429  and  _430
REMARK  186  A    between atoms: _435  and  _437
REMARK  187  A    between atoms: _437  and  _438
REMARK  188  A    between atoms: _437  and  _440
REMARK  189  A    between atoms: _440  and  _441
REMARK  190  A    between atoms: _444  and  _446
REMARK  191  A    between atoms: _446  and  _447
REMARK  192  A    between atoms: _446  and  _449
REMARK  193  A    between atoms: _449  and  _450
REMARK  194  A    between atoms: _453  and  _455
REMARK  195  A    between atoms: _455  and  _456
REMARK  196  A    between atoms: _455  and  _458
REMARK  197  A    between atoms: _458  and  _459
REMARK  198  A    between atoms: _462  and  _464
REMARK  199  A    between atoms: _464  and  _465
REMARK  200  A    between atoms: _464  and  _467
REMARK  201  A    between atoms: _467  and  _468
REMARK  202  A    between atoms: _468  and  _469
REMARK  203  A    between atoms: _469  and  _470
REMARK  204  A    between atoms: _470  and  _471
REMARK  205  A    between atoms: _475  and  _477
REMARK  206  A    between atoms: _477  and  _478
REMARK  207  A    between atoms: _477  and  _480
REMARK  208  A    between atoms: _480  and  _481
REMARK  209  A    between atoms: _484  and  _486
REMARK  210  A    between atoms: _486  and  _487
REMARK  211  A    between atoms: _486  and  _489
REMARK  212  A    between atoms: _489  and  _490
REMARK  213  A    between atoms: _493  and  _495
REMARK  214  A    between atoms: _495  and  _496
REMARK  215  A    between atoms: _495  and  _498
REMARK  216  A    between atoms: _498  and  _499
REMARK  217  A    between atoms: _502  and  _504
REMARK  218  A    between atoms: _504  and  _505
REMARK  219  A    between atoms: _504  and  _507
REMARK  220  A    between atoms: _507  and  _508
REMARK  221  A    between atoms: _514  and  _516
REMARK  222  A    between atoms: _516  and  _517
REMARK  223  A    between atoms: _519  and  _521
REMARK  224  A    between atoms: _521  and  _522
REMARK  225  A    between atoms: _521  and  _524
REMARK  226  A    between atoms: _524  and  _525
REMARK  227  A    between atoms: _528  and  _530
REMARK  228  A    between atoms: _530  and  _531
REMARK  229  A    between atoms: _530  and  _533
REMARK  230  A    between atoms: _533  and  _534
REMARK  231  A    between atoms: _536  and  _538
REMARK  232  A    between atoms: _538  and  _539
REMARK  233  A    between atoms: _538  and  _541
REMARK  234  A    between atoms: _541  and  _542
REMARK  235  A    between atoms: _542  and  _543
REMARK  236  A    between atoms: _543  and  _544
REMARK  237  A    between atoms: _544  and  _545
REMARK                            x       y       z     vdW  Elec       q    Type
REMARK                         _______ _______ _______ _____ _____    ______ ____
ROOT
ATOM      1  O   HOH     1      28.822  -3.759   5.794  0.00  0.00    +0.000 OA
ENDROOT
TORSDOF 0
REMARK  Name = ../refined-set-2016/3ubd/3ubd_pocket.pdb
REMARK  237 active torsions:
REMARK  status: ('A' for Active; 'I' for Inactive)
REMARK    1  A    between atoms: _1  and  _5
REMARK    2  A    between atoms: _5  and  _6
REMARK    3  A    between atoms: _5  and  _8
REMARK    4  A    between atoms: _8  and  _9
REMARK    5  A    between atoms: _9  and  _10
REMARK    6  A    between atoms: _13  and  _15
REMARK    7  A    between atoms: _15  and  _16
REMARK    8  A    between atoms: _15  and  _18
REMARK    9  A    between atoms: _18  and  _19
REMARK   10  A    between atoms: _22  and  _24
REMARK   11  A    between atoms: _24  and  _25
REMARK   12  A    between atoms: _28  and  _30
REMARK   13  A    between atoms: _30  and  _31
REMARK   14  A    between atoms: _30  and  _33
REMARK   15  A    between atoms: _33  and  _34
REMARK   16  A    between atoms: _37  and  _39
REMARK   17  A    between atoms: _39  and  _40
REMARK   18  A    between atoms: _39  and  _42
REMARK   19  A    between atoms: _42  and  _43
REMARK   20  A    between atoms: _43  and  _44
REMARK   21  A    between atoms: _49  and  _51
REMARK   22  A    between atoms: _51  and  _52
REMARK   23  A    between atoms: _54  and  _56
REMARK   24  A    between atoms: _56  and  _57
REMARK   25  A    between atoms: _56  and  _59
REMARK   26  A    between atoms: _59  and  _60
REMARK   27  A    between atoms: _62  and  _64
REMARK   28  A    between atoms: _64  and  _65
REMARK   29  A    between atoms: _64  and  _67
REMARK   30  A    between atoms: _67  and  _68
REMARK   31  A    between atoms: _74  and  _76
REMARK   32  A    between atoms: _76  and  _77
REMARK   33  A    between atoms: _79  and  _81
REMARK   34  A    between atoms: _81  and  _82
REMARK   35  A    between atoms: _81  and  _84
REMARK   36  A    between atoms: _84  and  _85
REMARK   37  A    between atoms: _85  and  _86
REMARK   38  A    between atoms: _86  and  _87
REMARK   39  A    between atoms: _87  and  _88
REMARK   40  A    between atoms: _92  and  _94
REMARK   41  A    between atoms: _94  and  _95
REMARK   42  A    between atoms: _94  and  _97
REMARK   43  A    between atoms: _100  and  _102
REMARK   44  A    between atoms: _102  and  _103
REMARK   45  A    between atoms: _102  and  _105
REMARK   46  A    between atoms: _105  and  _106
REMARK   47  A    between atoms: _112  and  _114
REMARK   48  A    between atoms: _114  and  _115
REMARK   49  A    between atoms: _114  and  _117
REMARK   50  A    between atoms: _117  and  _118
REMARK   51  A    between atoms: _123  and  _124
REMARK   52  A    between atoms: _126  and  _128
REMARK   53  A    between atoms: _128  and  _129
REMARK   54  A    between atoms: _132  and  _134
REMARK   55  A    between atoms: _134  and  _135
REMARK   56  A    between atoms: _134  and  _137
REMARK   57  A    between atoms: _137  and  _138
REMARK   58  A    between atoms: _138  and  _139
REMARK   59  A    between atoms: _141  and  _143
REMARK   60  A    between atoms: _143  and  _144
REMARK   61  A    between atoms: _143  and  _146
REMARK   62  A    between atoms: _146  and  _147
REMARK   63  A    between atoms: _147  and  _148
REMARK   64  A    between atoms: _148  and  _149
REMARK   65  A    between atoms: _149  and  _150
REMARK   66  A    between atoms: _154  and  _156
REMARK   67  A    between atoms: _156  and  _157
REMARK   68  A    between atoms: _156  and  _159
REMARK   69  A    between atoms: _162  and  _164
REMARK   70  A    between atoms: _164  and  _165
REMARK   71  A    between atoms: _164  and  _167
REMARK   72  A    between atoms: _167  and  _168
REMARK   73  A    between atoms: _171  and  _173
REMARK   74  A    between atoms: _173  and  _174
REMARK   75  A    between atoms: _173  and  _176
REMARK   76  A    between atoms: _176  and  _177
REMARK   77  A    between atoms: _177  and  _178
REMARK   78  A    between atoms: _178  and  _179
REMARK   79  A    between atoms: _179  and  _180
REMARK   80  A    between atoms: _184  and  _186
REMARK   81  A    between atoms: _186  and  _187
REMARK   82  A    between atoms: _186  and  _189
REMARK   83  A    between atoms: _189  and  _190
REMARK   84  A    between atoms: _190  and  _191
REMARK   85  A    between atoms: _191  and  _192
REMARK   86  A    between atoms: _192  and  _193
REMARK   87  A    between atoms: _197  and  _199
REMARK   88  A    between atoms: _199  and  _200
REMARK   89  A    between atoms: _203  and  _205
REMARK   90  A    between atoms: _205  and  _206
REMARK   91  A    between atoms: _205  and  _208
REMARK   92  A    between atoms: _208  and  _209
REMARK   93  A    between atoms: _212  and  _214
REMARK   94  A    between atoms: _214  and  _215
REMARK   95  A    between atoms: _214  and  _217
REMARK   96  A    between atoms: _217  and  _218
REMARK   97  A    between atoms: _221  and  _223
REMARK   98  A    between atoms: _223  and  _224
REMARK   99  A    between atoms: _223  and  _226
REMARK  100  A    between atoms: _229  and  _231
REMARK  101  A    between atoms: _231  and  _232
REMARK  102  A    between atoms: _231  and  _234
REMARK  103  A    between atoms: _234  and  _235
REMARK  104  A    between atoms: _235  and  _236
REMARK  105  A    between atoms: _236  and  _237
REMARK  106  A    between atoms: _237  and  _238
REMARK  107  A    between atoms: _242  and  _244
REMARK  108  A    between atoms: _244  and  _245
REMARK  109  A    between atoms: _244  and  _247
REMARK  110  A    between atoms: _247  and  _248
REMARK  111  A    between atoms: _251  and  _253
REMARK  112  A    between atoms: _253  and  _254
REMARK  113  A    between atoms: _253  and  _256
REMARK  114  A    between atoms: _256  and  _257
REMARK  115  A    between atoms: _262  and  _264
REMARK  116  A    between atoms: _264  and  _265
REMARK  117  A    between atoms: _264  and  _267
REMARK  118  A    between atoms: _267  and  _268
REMARK  119  A    between atoms: _271  and  _273
REMARK  120  A    between atoms: _273  and  _274
REMARK  121  A    between atoms: _273  and  _276
REMARK  122  A    between atoms: _276  and  _277
REMARK  123  A    between atoms: _280  and  _282
REMARK  124  A    between atoms: _282  and  _283
REMARK  125  A    between atoms: _282  and  _285
REMARK  126  A    between atoms: _285  and  _286
REMARK  127  A    between atoms: _289  and  _291
REMARK  128  A    between atoms: _291  and  _292
REMARK  129  A    between atoms: _291  and  _294
REMARK  130  A    between atoms: _294  and  _295
REMARK  131  A    between atoms: _298  and  _300
REMARK  132  A    between atoms: _300  and  _301
REMARK  133  A    between atoms: _300  and  _303
REMARK  134  A    between atoms: _303  and  _304
REMARK  135  A    between atoms: _307  and  _309
REMARK  136  A    between atoms: _309  and  _310
REMARK  137  A    between atoms: _309  and  _312
REMARK  138  A    between atoms: _312  and  _313
REMARK  139  A    between atoms: _319  and  _321
REMARK  140  A    between atoms: _321  and  _322
REMARK  141  A    between atoms: _321  and  _324
REMARK  142  A    between atoms: _324  and  _325
REMARK  143  A    between atoms: _328  and  _330
REMARK  144  A    between atoms: _330  and  _331
REMARK  145  A    between atoms: _330  and  _333
REMARK  146  A    between atoms: _333  and  _334
REMARK  147  A    between atoms: _334  and  _335
REMARK  148  A    between atoms: _335  and  _336
REMARK  149  A    between atoms: _345  and  _347
REMARK  150  A    between atoms: _347  and  _348
REMARK  151  A    between atoms: _350  and  _352
REMARK  152  A    between atoms: _352  and  _353
REMARK  153  A    between atoms: _355  and  _357
REMARK  154  A    between atoms: _357  and  _358
REMARK  155  A    between atoms: _357  and  _360
REMARK  156  A    between atoms: _360  and  _361
REMARK  157  A    between atoms: _364  and  _366
REMARK  158  A    between atoms: _366  and  _367
REMARK  159  A    between atoms: _366  and  _369
REMARK  160  A    between atoms: _369  and  _370
REMARK  161  A    between atoms: _373  and  _375
REMARK  162  A    between atoms: _375  and  _376
REMARK  163  A    between atoms: _375  and  _378
REMARK  164  A    between atoms: _378  and  _379
REMARK  165  A    between atoms: _385  and  _387
REMARK  166  A    between atoms: _387  and  _388
REMARK  167  A    between atoms: _387  and  _390
REMARK  168  A    between atoms: _390  and  _391
REMARK  169  A    between atoms: _394  and  _396
REMARK  170  A    between atoms: _396  and  _397
REMARK  171  A    between atoms: _396  and  _399
REMARK  172  A    between atoms: _399  and  _400
REMARK  173  A    between atoms: _400  and  _401
REMARK  174  A    between atoms: _401  and  _402
REMARK  175  A    between atoms: _402  and  _403
REMARK  176  A    between atoms: _408  and  _409
REMARK  177  A    between atoms: _414  and  _416
REMARK  178  A    between atoms: _416  and  _417
REMARK  179  A    between atoms: _416  and  _419
REMARK  180  A    between atoms: _419  and  _420
REMARK  181  A    between atoms: _420  and  _421
REMARK  182  A    between atoms: _424  and  _426
REMARK  183  A    between atoms: _426  and  _427
REMARK  184  A    between atoms: _426  and  _429
REMARK  185  A    between atoms: _429  and  _430
REMARK  186  A    between atoms: _435  and  _437
REMARK  187  A    between atoms: _437  and  _438
REMARK  188  A    between atoms: _437  and  _440
REMARK  189  A    between atoms: _440  and  _441
REMARK  190  A    between atoms: _444  and  _446
REMARK  191  A    between atoms: _446  and  _447
REMARK  192  A    between atoms: _446  and  _449
REMARK  193  A    between atoms: _449  and  _450
REMARK  194  A    between atoms: _453  and  _455
REMARK  195  A    between atoms: _455  and  _456
REMARK  196  A    between atoms: _455  and  _458
REMARK  197  A    between atoms: _458  and  _459
REMARK  198  A    between atoms: _462  and  _464
REMARK  199  A    between atoms: _464  and  _465
REMARK  200  A    between atoms: _464  and  _467
REMARK  201  A    between atoms: _467  and  _468
REMARK  202  A    between atoms: _468  and  _469
REMARK  203  A    between atoms: _469  and  _470
REMARK  204  A    between atoms: _470  and  _471
REMARK  205  A    between atoms: _475  and  _477
REMARK  206  A    between atoms: _477  and  _478
REMARK  207  A    between atoms: _477  and  _480
REMARK  208  A    between atoms: _480  and  _481
REMARK  209  A    between atoms: _484  and  _486
REMARK  210  A    between atoms: _486  and  _487
REMARK  211  A    between atoms: _486  and  _489
REMARK  212  A    between atoms: _489  and  _490
REMARK  213  A    between atoms: _493  and  _495
REMARK  214  A    between atoms: _495  and  _496
REMARK  215  A    between atoms: _495  and  _498
REMARK  216  A    between atoms: _498  and  _499
REMARK  217  A    between atoms: _502  and  _504
REMARK  218  A    between atoms: _504  and  _505
REMARK  219  A    between atoms: _504  and  _507
REMARK  220  A    between atoms: _507  and  _508
REMARK  221  A    between atoms: _514  and  _516
REMARK  222  A    between atoms: _516  and  _517
REMARK  223  A    between atoms: _519  and  _521
REMARK  224  A    between atoms: _521  and  _522
REMARK  225  A    between atoms: _521  and  _524
REMARK  226  A    between atoms: _524  and  _525
REMARK  227  A    between atoms: _528  and  _530
REMARK  228  A    between atoms: _530  and  _531
REMARK  229  A    between atoms: _530  and  _533
REMARK  230  A    between atoms: _533  and  _534
REMARK  231  A    between atoms: _536  and  _538
REMARK  232  A    between atoms: _538  and  _539
REMARK  233  A    between atoms: _538  and  _541
REMARK  234  A    between atoms: _541  and  _542
REMARK  235  A    between atoms: _542  and  _543
REMARK  236  A    between atoms: _543  and  _544
REMARK  237  A    between atoms: _544  and  _545
REMARK                            x       y       z     vdW  Elec       q    Type
REMARK                         _______ _______ _______ _____ _____    ______ ____
ROOT
ATOM      1  O   HOH     1      45.474   2.530  15.662  0.00  0.00    +0.000 OA
ENDROOT
TORSDOF 0
REMARK  Name = ../refined-set-2016/3ubd/3ubd_pocket.pdb
REMARK  237 active torsions:
REMARK  status: ('A' for Active; 'I' for Inactive)
REMARK    1  A    between atoms: _1  and  _5
REMARK    2  A    between atoms: _5  and  _6
REMARK    3  A    between atoms: _5  and  _8
REMARK    4  A    between atoms: _8  and  _9
REMARK    5  A    between atoms: _9  and  _10
REMARK    6  A    between atoms: _13  and  _15
REMARK    7  A    between atoms: _15  and  _16
REMARK    8  A    between atoms: _15  and  _18
REMARK    9  A    between atoms: _18  and  _19
REMARK   10  A    between atoms: _22  and  _24
REMARK   11  A    between atoms: _24  and  _25
REMARK   12  A    between atoms: _28  and  _30
REMARK   13  A    between atoms: _30  and  _31
REMARK   14  A    between atoms: _30  and  _33
REMARK   15  A    between atoms: _33  and  _34
REMARK   16  A    between atoms: _37  and  _39
REMARK   17  A    between atoms: _39  and  _40
REMARK   18  A    between atoms: _39  and  _42
REMARK   19  A    between atoms: _42  and  _43
REMARK   20  A    between atoms: _43  and  _44
REMARK   21  A    between atoms: _49  and  _51
REMARK   22  A    between atoms: _51  and  _52
REMARK   23  A    between atoms: _54  and  _56
REMARK   24  A    between atoms: _56  and  _57
REMARK   25  A    between atoms: _56  and  _59
REMARK   26  A    between atoms: _59  and  _60
REMARK   27  A    between atoms: _62  and  _64
REMARK   28  A    between atoms: _64  and  _65
REMARK   29  A    between atoms: _64  and  _67
REMARK   30  A    between atoms: _67  and  _68
REMARK   31  A    between atoms: _74  and  _76
REMARK   32  A    between atoms: _76  and  _77
REMARK   33  A    between atoms: _79  and  _81
REMARK   34  A    between atoms: _81  and  _82
REMARK   35  A    between atoms: _81  and  _84
REMARK   36  A    between atoms: _84  and  _85
REMARK   37  A    between atoms: _85  and  _86
REMARK   38  A    between atoms: _86  and  _87
REMARK   39  A    between atoms: _87  and  _88
REMARK   40  A    between atoms: _92  and  _94
REMARK   41  A    between atoms: _94  and  _95
REMARK   42  A    between atoms: _94  and  _97
REMARK   43  A    between atoms: _100  and  _102
REMARK   44  A    between atoms: _102  and  _103
REMARK   45  A    between atoms: _102  and  _105
REMARK   46  A    between atoms: _105  and  _106
REMARK   47  A    between atoms: _112  and  _114
REMARK   48  A    between atoms: _114  and  _115
REMARK   49  A    between atoms: _114  and  _117
REMARK   50  A    between atoms: _117  and  _118
REMARK   51  A    between atoms: _123  and  _124
REMARK   52  A    between atoms: _126  and  _128
REMARK   53  A    between atoms: _128  and  _129
REMARK   54  A    between atoms: _132  and  _134
REMARK   55  A    between atoms: _134  and  _135
REMARK   56  A    between atoms: _134  and  _137
REMARK   57  A    between atoms: _137  and  _138
REMARK   58  A    between atoms: _138  and  _139
REMARK   59  A    between atoms: _141  and  _143
REMARK   60  A    between atoms: _143  and  _144
REMARK   61  A    between atoms: _143  and  _146
REMARK   62  A    between atoms: _146  and  _147
REMARK   63  A    between atoms: _147  and  _148
REMARK   64  A    between atoms: _148  and  _149
REMARK   65  A    between atoms: _149  and  _150
REMARK   66  A    between atoms: _154  and  _156
REMARK   67  A    between atoms: _156  and  _157
REMARK   68  A    between atoms: _156  and  _159
REMARK   69  A    between atoms: _162  and  _164
REMARK   70  A    between atoms: _164  and  _165
REMARK   71  A    between atoms: _164  and  _167
REMARK   72  A    between atoms: _167  and  _168
REMARK   73  A    between atoms: _171  and  _173
REMARK   74  A    between atoms: _173  and  _174
REMARK   75  A    between atoms: _173  and  _176
REMARK   76  A    between atoms: _176  and  _177
REMARK   77  A    between atoms: _177  and  _178
REMARK   78  A    between atoms: _178  and  _179
REMARK   79  A    between atoms: _179  and  _180
REMARK   80  A    between atoms: _184  and  _186
REMARK   81  A    between atoms: _186  and  _187
REMARK   82  A    between atoms: _186  and  _189
REMARK   83  A    between atoms: _189  and  _190
REMARK   84  A    between atoms: _190  and  _191
REMARK   85  A    between atoms: _191  and  _192
REMARK   86  A    between atoms: _192  and  _193
REMARK   87  A    between atoms: _197  and  _199
REMARK   88  A    between atoms: _199  and  _200
REMARK   89  A    between atoms: _203  and  _205
REMARK   90  A    between atoms: _205  and  _206
REMARK   91  A    between atoms: _205  and  _208
REMARK   92  A    between atoms: _208  and  _209
REMARK   93  A    between atoms: _212  and  _214
REMARK   94  A    between atoms: _214  and  _215
REMARK   95  A    between atoms: _214  and  _217
REMARK   96  A    between atoms: _217  and  _218
REMARK   97  A    between atoms: _221  and  _223
REMARK   98  A    between atoms: _223  and  _224
REMARK   99  A    between atoms: _223  and  _226
REMARK  100  A    between atoms: _229  and  _231
REMARK  101  A    between atoms: _231  and  _232
REMARK  102  A    between atoms: _231  and  _234
REMARK  103  A    between atoms: _234  and  _235
REMARK  104  A    between atoms: _235  and  _236
REMARK  105  A    between atoms: _236  and  _237
REMARK  106  A    between atoms: _237  and  _238
REMARK  107  A    between atoms: _242  and  _244
REMARK  108  A    between atoms: _244  and  _245
REMARK  109  A    between atoms: _244  and  _247
REMARK  110  A    between atoms: _247  and  _248
REMARK  111  A    between atoms: _251  and  _253
REMARK  112  A    between atoms: _253  and  _254
REMARK  113  A    between atoms: _253  and  _256
REMARK  114  A    between atoms: _256  and  _257
REMARK  115  A    between atoms: _262  and  _264
REMARK  116  A    between atoms: _264  and  _265
REMARK  117  A    between atoms: _264  and  _267
REMARK  118  A    between atoms: _267  and  _268
REMARK  119  A    between atoms: _271  and  _273
REMARK  120  A    between atoms: _273  and  _274
REMARK  121  A    between atoms: _273  and  _276
REMARK  122  A    between atoms: _276  and  _277
REMARK  123  A    between atoms: _280  and  _282
REMARK  124  A    between atoms: _282  and  _283
REMARK  125  A    between atoms: _282  and  _285
REMARK  126  A    between atoms: _285  and  _286
REMARK  127  A    between atoms: _289  and  _291
REMARK  128  A    between atoms: _291  and  _292
REMARK  129  A    between atoms: _291  and  _294
REMARK  130  A    between atoms: _294  and  _295
REMARK  131  A    between atoms: _298  and  _300
REMARK  132  A    between atoms: _300  and  _301
REMARK  133  A    between atoms: _300  and  _303
REMARK  134  A    between atoms: _303  and  _304
REMARK  135  A    between atoms: _307  and  _309
REMARK  136  A    between atoms: _309  and  _310
REMARK  137  A    between atoms: _309  and  _312
REMARK  138  A    between atoms: _312  and  _313
REMARK  139  A    between atoms: _319  and  _321
REMARK  140  A    between atoms: _321  and  _322
REMARK  141  A    between atoms: _321  and  _324
REMARK  142  A    between atoms: _324  and  _325
REMARK  143  A    between atoms: _328  and  _330
REMARK  144  A    between atoms: _330  and  _331
REMARK  145  A    between atoms: _330  and  _333
REMARK  146  A    between atoms: _333  and  _334
REMARK  147  A    between atoms: _334  and  _335
REMARK  148  A    between atoms: _335  and  _336
REMARK  149  A    between atoms: _345  and  _347
REMARK  150  A    between atoms: _347  and  _348
REMARK  151  A    between atoms: _350  and  _352
REMARK  152  A    between atoms: _352  and  _353
REMARK  153  A    between atoms: _355  and  _357
REMARK  154  A    between atoms: _357  and  _358
REMARK  155  A    between atoms: _357  and  _360
REMARK  156  A    between atoms: _360  and  _361
REMARK  157  A    between atoms: _364  and  _366
REMARK  158  A    between atoms: _366  and  _367
REMARK  159  A    between atoms: _366  and  _369
REMARK  160  A    between atoms: _369  and  _370
REMARK  161  A    between atoms: _373  and  _375
REMARK  162  A    between atoms: _375  and  _376
REMARK  163  A    between atoms: _375  and  _378
REMARK  164  A    between atoms: _378  and  _379
REMARK  165  A    between atoms: _385  and  _387
REMARK  166  A    between atoms: _387  and  _388
REMARK  167  A    between atoms: _387  and  _390
REMARK  168  A    between atoms: _390  and  _391
REMARK  169  A    between atoms: _394  and  _396
REMARK  170  A    between atoms: _396  and  _397
REMARK  171  A    between atoms: _396  and  _399
REMARK  172  A    between atoms: _399  and  _400
REMARK  173  A    between atoms: _400  and  _401
REMARK  174  A    between atoms: _401  and  _402
REMARK  175  A    between atoms: _402  and  _403
REMARK  176  A    between atoms: _408  and  _409
REMARK  177  A    between atoms: _414  and  _416
REMARK  178  A    between atoms: _416  and  _417
REMARK  179  A    between atoms: _416  and  _419
REMARK  180  A    between atoms: _419  and  _420
REMARK  181  A    between atoms: _420  and  _421
REMARK  182  A    between atoms: _424  and  _426
REMARK  183  A    between atoms: _426  and  _427
REMARK  184  A    between atoms: _426  and  _429
REMARK  185  A    between atoms: _429  and  _430
REMARK  186  A    between atoms: _435  and  _437
REMARK  187  A    between atoms: _437  and  _438
REMARK  188  A    between atoms: _437  and  _440
REMARK  189  A    between atoms: _440  and  _441
REMARK  190  A    between atoms: _444  and  _446
REMARK  191  A    between atoms: _446  and  _447
REMARK  192  A    between atoms: _446  and  _449
REMARK  193  A    between atoms: _449  and  _450
REMARK  194  A    between atoms: _453  and  _455
REMARK  195  A    between atoms: _455  and  _456
REMARK  196  A    between atoms: _455  and  _458
REMARK  197  A    between atoms: _458  and  _459
REMARK  198  A    between atoms: _462  and  _464
REMARK  199  A    between atoms: _464  and  _465
REMARK  200  A    between atoms: _464  and  _467
REMARK  201  A    between atoms: _467  and  _468
REMARK  202  A    between atoms: _468  and  _469
REMARK  203  A    between atoms: _469  and  _470
REMARK  204  A    between atoms: _470  and  _471
REMARK  205  A    between atoms: _475  and  _477
REMARK  206  A    between atoms: _477  and  _478
REMARK  207  A    between atoms: _477  and  _480
REMARK  208  A    between atoms: _480  and  _481
REMARK  209  A    between atoms: _484  and  _486
REMARK  210  A    between atoms: _486  and  _487
REMARK  211  A    between atoms: _486  and  _489
REMARK  212  A    between atoms: _489  and  _490
REMARK  213  A    between atoms: _493  and  _495
REMARK  214  A    between atoms: _495  and  _496
REMARK  215  A    between atoms: _495  and  _498
REMARK  216  A    between atoms: _498  and  _499
REMARK  217  A    between atoms: _502  and  _504
REMARK  218  A    between atoms: _504  and  _505
REMARK  219  A    between atoms: _504  and  _507
REMARK  220  A    between atoms: _507  and  _508
REMARK  221  A    between atoms: _514  and  _516
REMARK  222  A    between atoms: _516  and  _517
REMARK  223  A    between atoms: _519  and  _521
REMARK  224  A    between atoms: _521  and  _522
REMARK  225  A    between atoms: _521  and  _524
REMARK  226  A    between atoms: _524  and  _525
REMARK  227  A    between atoms: _528  and  _530
REMARK  228  A    between atoms: _530  and  _531
REMARK  229  A    between atoms: _530  and  _533
REMARK  230  A    between atoms: _533  and  _534
REMARK  231  A    between atoms: _536  and  _538
REMARK  232  A    between atoms: _538  and  _539
REMARK  233  A    between atoms: _538  and  _541
REMARK  234  A    between atoms: _541  and  _542
REMARK  235  A    between atoms: _542  and  _543
REMARK  236  A    between atoms: _543  and  _544
REMARK  237  A    between atoms: _544  and  _545
REMARK                            x       y       z     vdW  Elec       q    Type
REMARK                         _______ _______ _______ _____ _____    ______ ____
ROOT
ATOM      1  O   HOH     1      40.751  -1.114  16.780  0.00  0.00    +0.000 OA
ENDROOT
TORSDOF 0
REMARK  Name = ../refined-set-2016/3ubd/3ubd_pocket.pdb
REMARK  237 active torsions:
REMARK  status: ('A' for Active; 'I' for Inactive)
REMARK    1  A    between atoms: _1  and  _5
REMARK    2  A    between atoms: _5  and  _6
REMARK    3  A    between atoms: _5  and  _8
REMARK    4  A    between atoms: _8  and  _9
REMARK    5  A    between atoms: _9  and  _10
REMARK    6  A    between atoms: _13  and  _15
REMARK    7  A    between atoms: _15  and  _16
REMARK    8  A    between atoms: _15  and  _18
REMARK    9  A    between atoms: _18  and  _19
REMARK   10  A    between atoms: _22  and  _24
REMARK   11  A    between atoms: _24  and  _25
REMARK   12  A    between atoms: _28  and  _30
REMARK   13  A    between atoms: _30  and  _31
REMARK   14  A    between atoms: _30  and  _33
REMARK   15  A    between atoms: _33  and  _34
REMARK   16  A    between atoms: _37  and  _39
REMARK   17  A    between atoms: _39  and  _40
REMARK   18  A    between atoms: _39  and  _42
REMARK   19  A    between atoms: _42  and  _43
REMARK   20  A    between atoms: _43  and  _44
REMARK   21  A    between atoms: _49  and  _51
REMARK   22  A    between atoms: _51  and  _52
REMARK   23  A    between atoms: _54  and  _56
REMARK   24  A    between atoms: _56  and  _57
REMARK   25  A    between atoms: _56  and  _59
REMARK   26  A    between atoms: _59  and  _60
REMARK   27  A    between atoms: _62  and  _64
REMARK   28  A    between atoms: _64  and  _65
REMARK   29  A    between atoms: _64  and  _67
REMARK   30  A    between atoms: _67  and  _68
REMARK   31  A    between atoms: _74  and  _76
REMARK   32  A    between atoms: _76  and  _77
REMARK   33  A    between atoms: _79  and  _81
REMARK   34  A    between atoms: _81  and  _82
REMARK   35  A    between atoms: _81  and  _84
REMARK   36  A    between atoms: _84  and  _85
REMARK   37  A    between atoms: _85  and  _86
REMARK   38  A    between atoms: _86  and  _87
REMARK   39  A    between atoms: _87  and  _88
REMARK   40  A    between atoms: _92  and  _94
REMARK   41  A    between atoms: _94  and  _95
REMARK   42  A    between atoms: _94  and  _97
REMARK   43  A    between atoms: _100  and  _102
REMARK   44  A    between atoms: _102  and  _103
REMARK   45  A    between atoms: _102  and  _105
REMARK   46  A    between atoms: _105  and  _106
REMARK   47  A    between atoms: _112  and  _114
REMARK   48  A    between atoms: _114  and  _115
REMARK   49  A    between atoms: _114  and  _117
REMARK   50  A    between atoms: _117  and  _118
REMARK   51  A    between atoms: _123  and  _124
REMARK   52  A    between atoms: _126  and  _128
REMARK   53  A    between atoms: _128  and  _129
REMARK   54  A    between atoms: _132  and  _134
REMARK   55  A    between atoms: _134  and  _135
REMARK   56  A    between atoms: _134  and  _137
REMARK   57  A    between atoms: _137  and  _138
REMARK   58  A    between atoms: _138  and  _139
REMARK   59  A    between atoms: _141  and  _143
REMARK   60  A    between atoms: _143  and  _144
REMARK   61  A    between atoms: _143  and  _146
REMARK   62  A    between atoms: _146  and  _147
REMARK   63  A    between atoms: _147  and  _148
REMARK   64  A    between atoms: _148  and  _149
REMARK   65  A    between atoms: _149  and  _150
REMARK   66  A    between atoms: _154  and  _156
REMARK   67  A    between atoms: _156  and  _157
REMARK   68  A    between atoms: _156  and  _159
REMARK   69  A    between atoms: _162  and  _164
REMARK   70  A    between atoms: _164  and  _165
REMARK   71  A    between atoms: _164  and  _167
REMARK   72  A    between atoms: _167  and  _168
REMARK   73  A    between atoms: _171  and  _173
REMARK   74  A    between atoms: _173  and  _174
REMARK   75  A    between atoms: _173  and  _176
REMARK   76  A    between atoms: _176  and  _177
REMARK   77  A    between atoms: _177  and  _178
REMARK   78  A    between atoms: _178  and  _179
REMARK   79  A    between atoms: _179  and  _180
REMARK   80  A    between atoms: _184  and  _186
REMARK   81  A    between atoms: _186  and  _187
REMARK   82  A    between atoms: _186  and  _189
REMARK   83  A    between atoms: _189  and  _190
REMARK   84  A    between atoms: _190  and  _191
REMARK   85  A    between atoms: _191  and  _192
REMARK   86  A    between atoms: _192  and  _193
REMARK   87  A    between atoms: _197  and  _199
REMARK   88  A    between atoms: _199  and  _200
REMARK   89  A    between atoms: _203  and  _205
REMARK   90  A    between atoms: _205  and  _206
REMARK   91  A    between atoms: _205  and  _208
REMARK   92  A    between atoms: _208  and  _209
REMARK   93  A    between atoms: _212  and  _214
REMARK   94  A    between atoms: _214  and  _215
REMARK   95  A    between atoms: _214  and  _217
REMARK   96  A    between atoms: _217  and  _218
REMARK   97  A    between atoms: _221  and  _223
REMARK   98  A    between atoms: _223  and  _224
REMARK   99  A    between atoms: _223  and  _226
REMARK  100  A    between atoms: _229  and  _231
REMARK  101  A    between atoms: _231  and  _232
REMARK  102  A    between atoms: _231  and  _234
REMARK  103  A    between atoms: _234  and  _235
REMARK  104  A    between atoms: _235  and  _236
REMARK  105  A    between atoms: _236  and  _237
REMARK  106  A    between atoms: _237  and  _238
REMARK  107  A    between atoms: _242  and  _244
REMARK  108  A    between atoms: _244  and  _245
REMARK  109  A    between atoms: _244  and  _247
REMARK  110  A    between atoms: _247  and  _248
REMARK  111  A    between atoms: _251  and  _253
REMARK  112  A    between atoms: _253  and  _254
REMARK  113  A    between atoms: _253  and  _256
REMARK  114  A    between atoms: _256  and  _257
REMARK  115  A    between atoms: _262  and  _264
REMARK  116  A    between atoms: _264  and  _265
REMARK  117  A    between atoms: _264  and  _267
REMARK  118  A    between atoms: _267  and  _268
REMARK  119  A    between atoms: _271  and  _273
REMARK  120  A    between atoms: _273  and  _274
REMARK  121  A    between atoms: _273  and  _276
REMARK  122  A    between atoms: _276  and  _277
REMARK  123  A    between atoms: _280  and  _282
REMARK  124  A    between atoms: _282  and  _283
REMARK  125  A    between atoms: _282  and  _285
REMARK  126  A    between atoms: _285  and  _286
REMARK  127  A    between atoms: _289  and  _291
REMARK  128  A    between atoms: _291  and  _292
REMARK  129  A    between atoms: _291  and  _294
REMARK  130  A    between atoms: _294  and  _295
REMARK  131  A    between atoms: _298  and  _300
REMARK  132  A    between atoms: _300  and  _301
REMARK  133  A    between atoms: _300  and  _303
REMARK  134  A    between atoms: _303  and  _304
REMARK  135  A    between atoms: _307  and  _309
REMARK  136  A    between atoms: _309  and  _310
REMARK  137  A    between atoms: _309  and  _312
REMARK  138  A    between atoms: _312  and  _313
REMARK  139  A    between atoms: _319  and  _321
REMARK  140  A    between atoms: _321  and  _322
REMARK  141  A    between atoms: _321  and  _324
REMARK  142  A    between atoms: _324  and  _325
REMARK  143  A    between atoms: _328  and  _330
REMARK  144  A    between atoms: _330  and  _331
REMARK  145  A    between atoms: _330  and  _333
REMARK  146  A    between atoms: _333  and  _334
REMARK  147  A    between atoms: _334  and  _335
REMARK  148  A    between atoms: _335  and  _336
REMARK  149  A    between atoms: _345  and  _347
REMARK  150  A    between atoms: _347  and  _348
REMARK  151  A    between atoms: _350  and  _352
REMARK  152  A    between atoms: _352  and  _353
REMARK  153  A    between atoms: _355  and  _357
REMARK  154  A    between atoms: _357  and  _358
REMARK  155  A    between atoms: _357  and  _360
REMARK  156  A    between atoms: _360  and  _361
REMARK  157  A    between atoms: _364  and  _366
REMARK  158  A    between atoms: _366  and  _367
REMARK  159  A    between atoms: _366  and  _369
REMARK  160  A    between atoms: _369  and  _370
REMARK  161  A    between atoms: _373  and  _375
REMARK  162  A    between atoms: _375  and  _376
REMARK  163  A    between atoms: _375  and  _378
REMARK  164  A    between atoms: _378  and  _379
REMARK  165  A    between atoms: _385  and  _387
REMARK  166  A    between atoms: _387  and  _388
REMARK  167  A    between atoms: _387  and  _390
REMARK  168  A    between atoms: _390  and  _391
REMARK  169  A    between atoms: _394  and  _396
REMARK  170  A    between atoms: _396  and  _397
REMARK  171  A    between atoms: _396  and  _399
REMARK  172  A    between atoms: _399  and  _400
REMARK  173  A    between atoms: _400  and  _401
REMARK  174  A    between atoms: _401  and  _402
REMARK  175  A    between atoms: _402  and  _403
REMARK  176  A    between atoms: _408  and  _409
REMARK  177  A    between atoms: _414  and  _416
REMARK  178  A    between atoms: _416  and  _417
REMARK  179  A    between atoms: _416  and  _419
REMARK  180  A    between atoms: _419  and  _420
REMARK  181  A    between atoms: _420  and  _421
REMARK  182  A    between atoms: _424  and  _426
REMARK  183  A    between atoms: _426  and  _427
REMARK  184  A    between atoms: _426  and  _429
REMARK  185  A    between atoms: _429  and  _430
REMARK  186  A    between atoms: _435  and  _437
REMARK  187  A    between atoms: _437  and  _438
REMARK  188  A    between atoms: _437  and  _440
REMARK  189  A    between atoms: _440  and  _441
REMARK  190  A    between atoms: _444  and  _446
REMARK  191  A    between atoms: _446  and  _447
REMARK  192  A    between atoms: _446  and  _449
REMARK  193  A    between atoms: _449  and  _450
REMARK  194  A    between atoms: _453  and  _455
REMARK  195  A    between atoms: _455  and  _456
REMARK  196  A    between atoms: _455  and  _458
REMARK  197  A    between atoms: _458  and  _459
REMARK  198  A    between atoms: _462  and  _464
REMARK  199  A    between atoms: _464  and  _465
REMARK  200  A    between atoms: _464  and  _467
REMARK  201  A    between atoms: _467  and  _468
REMARK  202  A    between atoms: _468  and  _469
REMARK  203  A    between atoms: _469  and  _470
REMARK  204  A    between atoms: _470  and  _471
REMARK  205  A    between atoms: _475  and  _477
REMARK  206  A    between atoms: _477  and  _478
REMARK  207  A    between atoms: _477  and  _480
REMARK  208  A    between atoms: _480  and  _481
REMARK  209  A    between atoms: _484  and  _486
REMARK  210  A    between atoms: _486  and  _487
REMARK  211  A    between atoms: _486  and  _489
REMARK  212  A    between atoms: _489  and  _490
REMARK  213  A    between atoms: _493  and  _495
REMARK  214  A    between atoms: _495  and  _496
REMARK  215  A    between atoms: _495  and  _498
REMARK  216  A    between atoms: _498  and  _499
REMARK  217  A    between atoms: _502  and  _504
REMARK  218  A    between atoms: _504  and  _505
REMARK  219  A    between atoms: _504  and  _507
REMARK  220  A    between atoms: _507  and  _508
REMARK  221  A    between atoms: _514  and  _516
REMARK  222  A    between atoms: _516  and  _517
REMARK  223  A    between atoms: _519  and  _521
REMARK  224  A    between atoms: _521  and  _522
REMARK  225  A    between atoms: _521  and  _524
REMARK  226  A    between atoms: _524  and  _525
REMARK  227  A    between atoms: _528  and  _530
REMARK  228  A    between atoms: _530  and  _531
REMARK  229  A    between atoms: _530  and  _533
REMARK  230  A    between atoms: _533  and  _534
REMARK  231  A    between atoms: _536  and  _538
REMARK  232  A    between atoms: _538  and  _539
REMARK  233  A    between atoms: _538  and  _541
REMARK  234  A    between atoms: _541  and  _542
REMARK  235  A    between atoms: _542  and  _543
REMARK  236  A    between atoms: _543  and  _544
REMARK  237  A    between atoms: _544  and  _545
REMARK                            x       y       z     vdW  Elec       q    Type
REMARK                         _______ _______ _______ _____ _____    ______ ____
ROOT
ATOM      1  O   HOH     1      36.167   5.159  -0.269  0.00  0.00    +0.000 OA
ENDROOT
TORSDOF 0
REMARK  Name = ../refined-set-2016/3ubd/3ubd_pocket.pdb
REMARK  237 active torsions:
REMARK  status: ('A' for Active; 'I' for Inactive)
REMARK    1  A    between atoms: _1  and  _5
REMARK    2  A    between atoms: _5  and  _6
REMARK    3  A    between atoms: _5  and  _8
REMARK    4  A    between atoms: _8  and  _9
REMARK    5  A    between atoms: _9  and  _10
REMARK    6  A    between atoms: _13  and  _15
REMARK    7  A    between atoms: _15  and  _16
REMARK    8  A    between atoms: _15  and  _18
REMARK    9  A    between atoms: _18  and  _19
REMARK   10  A    between atoms: _22  and  _24
REMARK   11  A    between atoms: _24  and  _25
REMARK   12  A    between atoms: _28  and  _30
REMARK   13  A    between atoms: _30  and  _31
REMARK   14  A    between atoms: _30  and  _33
REMARK   15  A    between atoms: _33  and  _34
REMARK   16  A    between atoms: _37  and  _39
REMARK   17  A    between atoms: _39  and  _40
REMARK   18  A    between atoms: _39  and  _42
REMARK   19  A    between atoms: _42  and  _43
REMARK   20  A    between atoms: _43  and  _44
REMARK   21  A    between atoms: _49  and  _51
REMARK   22  A    between atoms: _51  and  _52
REMARK   23  A    between atoms: _54  and  _56
REMARK   24  A    between atoms: _56  and  _57
REMARK   25  A    between atoms: _56  and  _59
REMARK   26  A    between atoms: _59  and  _60
REMARK   27  A    between atoms: _62  and  _64
REMARK   28  A    between atoms: _64  and  _65
REMARK   29  A    between atoms: _64  and  _67
REMARK   30  A    between atoms: _67  and  _68
REMARK   31  A    between atoms: _74  and  _76
REMARK   32  A    between atoms: _76  and  _77
REMARK   33  A    between atoms: _79  and  _81
REMARK   34  A    between atoms: _81  and  _82
REMARK   35  A    between atoms: _81  and  _84
REMARK   36  A    between atoms: _84  and  _85
REMARK   37  A    between atoms: _85  and  _86
REMARK   38  A    between atoms: _86  and  _87
REMARK   39  A    between atoms: _87  and  _88
REMARK   40  A    between atoms: _92  and  _94
REMARK   41  A    between atoms: _94  and  _95
REMARK   42  A    between atoms: _94  and  _97
REMARK   43  A    between atoms: _100  and  _102
REMARK   44  A    between atoms: _102  and  _103
REMARK   45  A    between atoms: _102  and  _105
REMARK   46  A    between atoms: _105  and  _106
REMARK   47  A    between atoms: _112  and  _114
REMARK   48  A    between atoms: _114  and  _115
REMARK   49  A    between atoms: _114  and  _117
REMARK   50  A    between atoms: _117  and  _118
REMARK   51  A    between atoms: _123  and  _124
REMARK   52  A    between atoms: _126  and  _128
REMARK   53  A    between atoms: _128  and  _129
REMARK   54  A    between atoms: _132  and  _134
REMARK   55  A    between atoms: _134  and  _135
REMARK   56  A    between atoms: _134  and  _137
REMARK   57  A    between atoms: _137  and  _138
REMARK   58  A    between atoms: _138  and  _139
REMARK   59  A    between atoms: _141  and  _143
REMARK   60  A    between atoms: _143  and  _144
REMARK   61  A    between atoms: _143  and  _146
REMARK   62  A    between atoms: _146  and  _147
REMARK   63  A    between atoms: _147  and  _148
REMARK   64  A    between atoms: _148  and  _149
REMARK   65  A    between atoms: _149  and  _150
REMARK   66  A    between atoms: _154  and  _156
REMARK   67  A    between atoms: _156  and  _157
REMARK   68  A    between atoms: _156  and  _159
REMARK   69  A    between atoms: _162  and  _164
REMARK   70  A    between atoms: _164  and  _165
REMARK   71  A    between atoms: _164  and  _167
REMARK   72  A    between atoms: _167  and  _168
REMARK   73  A    between atoms: _171  and  _173
REMARK   74  A    between atoms: _173  and  _174
REMARK   75  A    between atoms: _173  and  _176
REMARK   76  A    between atoms: _176  and  _177
REMARK   77  A    between atoms: _177  and  _178
REMARK   78  A    between atoms: _178  and  _179
REMARK   79  A    between atoms: _179  and  _180
REMARK   80  A    between atoms: _184  and  _186
REMARK   81  A    between atoms: _186  and  _187
REMARK   82  A    between atoms: _186  and  _189
REMARK   83  A    between atoms: _189  and  _190
REMARK   84  A    between atoms: _190  and  _191
REMARK   85  A    between atoms: _191  and  _192
REMARK   86  A    between atoms: _192  and  _193
REMARK   87  A    between atoms: _197  and  _199
REMARK   88  A    between atoms: _199  and  _200
REMARK   89  A    between atoms: _203  and  _205
REMARK   90  A    between atoms: _205  and  _206
REMARK   91  A    between atoms: _205  and  _208
REMARK   92  A    between atoms: _208  and  _209
REMARK   93  A    between atoms: _212  and  _214
REMARK   94  A    between atoms: _214  and  _215
REMARK   95  A    between atoms: _214  and  _217
REMARK   96  A    between atoms: _217  and  _218
REMARK   97  A    between atoms: _221  and  _223
REMARK   98  A    between atoms: _223  and  _224
REMARK   99  A    between atoms: _223  and  _226
REMARK  100  A    between atoms: _229  and  _231
REMARK  101  A    between atoms: _231  and  _232
REMARK  102  A    between atoms: _231  and  _234
REMARK  103  A    between atoms: _234  and  _235
REMARK  104  A    between atoms: _235  and  _236
REMARK  105  A    between atoms: _236  and  _237
REMARK  106  A    between atoms: _237  and  _238
REMARK  107  A    between atoms: _242  and  _244
REMARK  108  A    between atoms: _244  and  _245
REMARK  109  A    between atoms: _244  and  _247
REMARK  110  A    between atoms: _247  and  _248
REMARK  111  A    between atoms: _251  and  _253
REMARK  112  A    between atoms: _253  and  _254
REMARK  113  A    between atoms: _253  and  _256
REMARK  114  A    between atoms: _256  and  _257
REMARK  115  A    between atoms: _262  and  _264
REMARK  116  A    between atoms: _264  and  _265
REMARK  117  A    between atoms: _264  and  _267
REMARK  118  A    between atoms: _267  and  _268
REMARK  119  A    between atoms: _271  and  _273
REMARK  120  A    between atoms: _273  and  _274
REMARK  121  A    between atoms: _273  and  _276
REMARK  122  A    between atoms: _276  and  _277
REMARK  123  A    between atoms: _280  and  _282
REMARK  124  A    between atoms: _282  and  _283
REMARK  125  A    between atoms: _282  and  _285
REMARK  126  A    between atoms: _285  and  _286
REMARK  127  A    between atoms: _289  and  _291
REMARK  128  A    between atoms: _291  and  _292
REMARK  129  A    between atoms: _291  and  _294
REMARK  130  A    between atoms: _294  and  _295
REMARK  131  A    between atoms: _298  and  _300
REMARK  132  A    between atoms: _300  and  _301
REMARK  133  A    between atoms: _300  and  _303
REMARK  134  A    between atoms: _303  and  _304
REMARK  135  A    between atoms: _307  and  _309
REMARK  136  A    between atoms: _309  and  _310
REMARK  137  A    between atoms: _309  and  _312
REMARK  138  A    between atoms: _312  and  _313
REMARK  139  A    between atoms: _319  and  _321
REMARK  140  A    between atoms: _321  and  _322
REMARK  141  A    between atoms: _321  and  _324
REMARK  142  A    between atoms: _324  and  _325
REMARK  143  A    between atoms: _328  and  _330
REMARK  144  A    between atoms: _330  and  _331
REMARK  145  A    between atoms: _330  and  _333
REMARK  146  A    between atoms: _333  and  _334
REMARK  147  A    between atoms: _334  and  _335
REMARK  148  A    between atoms: _335  and  _336
REMARK  149  A    between atoms: _345  and  _347
REMARK  150  A    between atoms: _347  and  _348
REMARK  151  A    between atoms: _350  and  _352
REMARK  152  A    between atoms: _352  and  _353
REMARK  153  A    between atoms: _355  and  _357
REMARK  154  A    between atoms: _357  and  _358
REMARK  155  A    between atoms: _357  and  _360
REMARK  156  A    between atoms: _360  and  _361
REMARK  157  A    between atoms: _364  and  _366
REMARK  158  A    between atoms: _366  and  _367
REMARK  159  A    between atoms: _366  and  _369
REMARK  160  A    between atoms: _369  and  _370
REMARK  161  A    between atoms: _373  and  _375
REMARK  162  A    between atoms: _375  and  _376
REMARK  163  A    between atoms: _375  and  _378
REMARK  164  A    between atoms: _378  and  _379
REMARK  165  A    between atoms: _385  and  _387
REMARK  166  A    between atoms: _387  and  _388
REMARK  167  A    between atoms: _387  and  _390
REMARK  168  A    between atoms: _390  and  _391
REMARK  169  A    between atoms: _394  and  _396
REMARK  170  A    between atoms: _396  and  _397
REMARK  171  A    between atoms: _396  and  _399
REMARK  172  A    between atoms: _399  and  _400
REMARK  173  A    between atoms: _400  and  _401
REMARK  174  A    between atoms: _401  and  _402
REMARK  175  A    between atoms: _402  and  _403
REMARK  176  A    between atoms: _408  and  _409
REMARK  177  A    between atoms: _414  and  _416
REMARK  178  A    between atoms: _416  and  _417
REMARK  179  A    between atoms: _416  and  _419
REMARK  180  A    between atoms: _419  and  _420
REMARK  181  A    between atoms: _420  and  _421
REMARK  182  A    between atoms: _424  and  _426
REMARK  183  A    between atoms: _426  and  _427
REMARK  184  A    between atoms: _426  and  _429
REMARK  185  A    between atoms: _429  and  _430
REMARK  186  A    between atoms: _435  and  _437
REMARK  187  A    between atoms: _437  and  _438
REMARK  188  A    between atoms: _437  and  _440
REMARK  189  A    between atoms: _440  and  _441
REMARK  190  A    between atoms: _444  and  _446
REMARK  191  A    between atoms: _446  and  _447
REMARK  192  A    between atoms: _446  and  _449
REMARK  193  A    between atoms: _449  and  _450
REMARK  194  A    between atoms: _453  and  _455
REMARK  195  A    between atoms: _455  and  _456
REMARK  196  A    between atoms: _455  and  _458
REMARK  197  A    between atoms: _458  and  _459
REMARK  198  A    between atoms: _462  and  _464
REMARK  199  A    between atoms: _464  and  _465
REMARK  200  A    between atoms: _464  and  _467
REMARK  201  A    between atoms: _467  and  _468
REMARK  202  A    between atoms: _468  and  _469
REMARK  203  A    between atoms: _469  and  _470
REMARK  204  A    between atoms: _470  and  _471
REMARK  205  A    between atoms: _475  and  _477
REMARK  206  A    between atoms: _477  and  _478
REMARK  207  A    between atoms: _477  and  _480
REMARK  208  A    between atoms: _480  and  _481
REMARK  209  A    between atoms: _484  and  _486
REMARK  210  A    between atoms: _486  and  _487
REMARK  211  A    between atoms: _486  and  _489
REMARK  212  A    between atoms: _489  and  _490
REMARK  213  A    between atoms: _493  and  _495
REMARK  214  A    between atoms: _495  and  _496
REMARK  215  A    between atoms: _495  and  _498
REMARK  216  A    between atoms: _498  and  _499
REMARK  217  A    between atoms: _502  and  _504
REMARK  218  A    between atoms: _504  and  _505
REMARK  219  A    between atoms: _504  and  _507
REMARK  220  A    between atoms: _507  and  _508
REMARK  221  A    between atoms: _514  and  _516
REMARK  222  A    between atoms: _516  and  _517
REMARK  223  A    between atoms: _519  and  _521
REMARK  224  A    between atoms: _521  and  _522
REMARK  225  A    between atoms: _521  and  _524
REMARK  226  A    between atoms: _524  and  _525
REMARK  227  A    between atoms: _528  and  _530
REMARK  228  A    between atoms: _530  and  _531
REMARK  229  A    between atoms: _530  and  _533
REMARK  230  A    between atoms: _533  and  _534
REMARK  231  A    between atoms: _536  and  _538
REMARK  232  A    between atoms: _538  and  _539
REMARK  233  A    between atoms: _538  and  _541
REMARK  234  A    between atoms: _541  and  _542
REMARK  235  A    between atoms: _542  and  _543
REMARK  236  A    between atoms: _543  and  _544
REMARK  237  A    between atoms: _544  and  _545
REMARK                            x       y       z     vdW  Elec       q    Type
REMARK                         _______ _______ _______ _____ _____    ______ ____
ROOT
ATOM      1  O   HOH     1      35.086   6.536   1.417  0.00  0.00    +0.000 OA
ENDROOT
TORSDOF 0
REMARK  Name = ../refined-set-2016/3ubd/3ubd_pocket.pdb
REMARK  237 active torsions:
REMARK  status: ('A' for Active; 'I' for Inactive)
REMARK    1  A    between atoms: _1  and  _5
REMARK    2  A    between atoms: _5  and  _6
REMARK    3  A    between atoms: _5  and  _8
REMARK    4  A    between atoms: _8  and  _9
REMARK    5  A    between atoms: _9  and  _10
REMARK    6  A    between atoms: _13  and  _15
REMARK    7  A    between atoms: _15  and  _16
REMARK    8  A    between atoms: _15  and  _18
REMARK    9  A    between atoms: _18  and  _19
REMARK   10  A    between atoms: _22  and  _24
REMARK   11  A    between atoms: _24  and  _25
REMARK   12  A    between atoms: _28  and  _30
REMARK   13  A    between atoms: _30  and  _31
REMARK   14  A    between atoms: _30  and  _33
REMARK   15  A    between atoms: _33  and  _34
REMARK   16  A    between atoms: _37  and  _39
REMARK   17  A    between atoms: _39  and  _40
REMARK   18  A    between atoms: _39  and  _42
REMARK   19  A    between atoms: _42  and  _43
REMARK   20  A    between atoms: _43  and  _44
REMARK   21  A    between atoms: _49  and  _51
REMARK   22  A    between atoms: _51  and  _52
REMARK   23  A    between atoms: _54  and  _56
REMARK   24  A    between atoms: _56  and  _57
REMARK   25  A    between atoms: _56  and  _59
REMARK   26  A    between atoms: _59  and  _60
REMARK   27  A    between atoms: _62  and  _64
REMARK   28  A    between atoms: _64  and  _65
REMARK   29  A    between atoms: _64  and  _67
REMARK   30  A    between atoms: _67  and  _68
REMARK   31  A    between atoms: _74  and  _76
REMARK   32  A    between atoms: _76  and  _77
REMARK   33  A    between atoms: _79  and  _81
REMARK   34  A    between atoms: _81  and  _82
REMARK   35  A    between atoms: _81  and  _84
REMARK   36  A    between atoms: _84  and  _85
REMARK   37  A    between atoms: _85  and  _86
REMARK   38  A    between atoms: _86  and  _87
REMARK   39  A    between atoms: _87  and  _88
REMARK   40  A    between atoms: _92  and  _94
REMARK   41  A    between atoms: _94  and  _95
REMARK   42  A    between atoms: _94  and  _97
REMARK   43  A    between atoms: _100  and  _102
REMARK   44  A    between atoms: _102  and  _103
REMARK   45  A    between atoms: _102  and  _105
REMARK   46  A    between atoms: _105  and  _106
REMARK   47  A    between atoms: _112  and  _114
REMARK   48  A    between atoms: _114  and  _115
REMARK   49  A    between atoms: _114  and  _117
REMARK   50  A    between atoms: _117  and  _118
REMARK   51  A    between atoms: _123  and  _124
REMARK   52  A    between atoms: _126  and  _128
REMARK   53  A    between atoms: _128  and  _129
REMARK   54  A    between atoms: _132  and  _134
REMARK   55  A    between atoms: _134  and  _135
REMARK   56  A    between atoms: _134  and  _137
REMARK   57  A    between atoms: _137  and  _138
REMARK   58  A    between atoms: _138  and  _139
REMARK   59  A    between atoms: _141  and  _143
REMARK   60  A    between atoms: _143  and  _144
REMARK   61  A    between atoms: _143  and  _146
REMARK   62  A    between atoms: _146  and  _147
REMARK   63  A    between atoms: _147  and  _148
REMARK   64  A    between atoms: _148  and  _149
REMARK   65  A    between atoms: _149  and  _150
REMARK   66  A    between atoms: _154  and  _156
REMARK   67  A    between atoms: _156  and  _157
REMARK   68  A    between atoms: _156  and  _159
REMARK   69  A    between atoms: _162  and  _164
REMARK   70  A    between atoms: _164  and  _165
REMARK   71  A    between atoms: _164  and  _167
REMARK   72  A    between atoms: _167  and  _168
REMARK   73  A    between atoms: _171  and  _173
REMARK   74  A    between atoms: _173  and  _174
REMARK   75  A    between atoms: _173  and  _176
REMARK   76  A    between atoms: _176  and  _177
REMARK   77  A    between atoms: _177  and  _178
REMARK   78  A    between atoms: _178  and  _179
REMARK   79  A    between atoms: _179  and  _180
REMARK   80  A    between atoms: _184  and  _186
REMARK   81  A    between atoms: _186  and  _187
REMARK   82  A    between atoms: _186  and  _189
REMARK   83  A    between atoms: _189  and  _190
REMARK   84  A    between atoms: _190  and  _191
REMARK   85  A    between atoms: _191  and  _192
REMARK   86  A    between atoms: _192  and  _193
REMARK   87  A    between atoms: _197  and  _199
REMARK   88  A    between atoms: _199  and  _200
REMARK   89  A    between atoms: _203  and  _205
REMARK   90  A    between atoms: _205  and  _206
REMARK   91  A    between atoms: _205  and  _208
REMARK   92  A    between atoms: _208  and  _209
REMARK   93  A    between atoms: _212  and  _214
REMARK   94  A    between atoms: _214  and  _215
REMARK   95  A    between atoms: _214  and  _217
REMARK   96  A    between atoms: _217  and  _218
REMARK   97  A    between atoms: _221  and  _223
REMARK   98  A    between atoms: _223  and  _224
REMARK   99  A    between atoms: _223  and  _226
REMARK  100  A    between atoms: _229  and  _231
REMARK  101  A    between atoms: _231  and  _232
REMARK  102  A    between atoms: _231  and  _234
REMARK  103  A    between atoms: _234  and  _235
REMARK  104  A    between atoms: _235  and  _236
REMARK  105  A    between atoms: _236  and  _237
REMARK  106  A    between atoms: _237  and  _238
REMARK  107  A    between atoms: _242  and  _244
REMARK  108  A    between atoms: _244  and  _245
REMARK  109  A    between atoms: _244  and  _247
REMARK  110  A    between atoms: _247  and  _248
REMARK  111  A    between atoms: _251  and  _253
REMARK  112  A    between atoms: _253  and  _254
REMARK  113  A    between atoms: _253  and  _256
REMARK  114  A    between atoms: _256  and  _257
REMARK  115  A    between atoms: _262  and  _264
REMARK  116  A    between atoms: _264  and  _265
REMARK  117  A    between atoms: _264  and  _267
REMARK  118  A    between atoms: _267  and  _268
REMARK  119  A    between atoms: _271  and  _273
REMARK  120  A    between atoms: _273  and  _274
REMARK  121  A    between atoms: _273  and  _276
REMARK  122  A    between atoms: _276  and  _277
REMARK  123  A    between atoms: _280  and  _282
REMARK  124  A    between atoms: _282  and  _283
REMARK  125  A    between atoms: _282  and  _285
REMARK  126  A    between atoms: _285  and  _286
REMARK  127  A    between atoms: _289  and  _291
REMARK  128  A    between atoms: _291  and  _292
REMARK  129  A    between atoms: _291  and  _294
REMARK  130  A    between atoms: _294  and  _295
REMARK  131  A    between atoms: _298  and  _300
REMARK  132  A    between atoms: _300  and  _301
REMARK  133  A    between atoms: _300  and  _303
REMARK  134  A    between atoms: _303  and  _304
REMARK  135  A    between atoms: _307  and  _309
REMARK  136  A    between atoms: _309  and  _310
REMARK  137  A    between atoms: _309  and  _312
REMARK  138  A    between atoms: _312  and  _313
REMARK  139  A    between atoms: _319  and  _321
REMARK  140  A    between atoms: _321  and  _322
REMARK  141  A    between atoms: _321  and  _324
REMARK  142  A    between atoms: _324  and  _325
REMARK  143  A    between atoms: _328  and  _330
REMARK  144  A    between atoms: _330  and  _331
REMARK  145  A    between atoms: _330  and  _333
REMARK  146  A    between atoms: _333  and  _334
REMARK  147  A    between atoms: _334  and  _335
REMARK  148  A    between atoms: _335  and  _336
REMARK  149  A    between atoms: _345  and  _347
REMARK  150  A    between atoms: _347  and  _348
REMARK  151  A    between atoms: _350  and  _352
REMARK  152  A    between atoms: _352  and  _353
REMARK  153  A    between atoms: _355  and  _357
REMARK  154  A    between atoms: _357  and  _358
REMARK  155  A    between atoms: _357  and  _360
REMARK  156  A    between atoms: _360  and  _361
REMARK  157  A    between atoms: _364  and  _366
REMARK  158  A    between atoms: _366  and  _367
REMARK  159  A    between atoms: _366  and  _369
REMARK  160  A    between atoms: _369  and  _370
REMARK  161  A    between atoms: _373  and  _375
REMARK  162  A    between atoms: _375  and  _376
REMARK  163  A    between atoms: _375  and  _378
REMARK  164  A    between atoms: _378  and  _379
REMARK  165  A    between atoms: _385  and  _387
REMARK  166  A    between atoms: _387  and  _388
REMARK  167  A    between atoms: _387  and  _390
REMARK  168  A    between atoms: _390  and  _391
REMARK  169  A    between atoms: _394  and  _396
REMARK  170  A    between atoms: _396  and  _397
REMARK  171  A    between atoms: _396  and  _399
REMARK  172  A    between atoms: _399  and  _400
REMARK  173  A    between atoms: _400  and  _401
REMARK  174  A    between atoms: _401  and  _402
REMARK  175  A    between atoms: _402  and  _403
REMARK  176  A    between atoms: _408  and  _409
REMARK  177  A    between atoms: _414  and  _416
REMARK  178  A    between atoms: _416  and  _417
REMARK  179  A    between atoms: _416  and  _419
REMARK  180  A    between atoms: _419  and  _420
REMARK  181  A    between atoms: _420  and  _421
REMARK  182  A    between atoms: _424  and  _426
REMARK  183  A    between atoms: _426  and  _427
REMARK  184  A    between atoms: _426  and  _429
REMARK  185  A    between atoms: _429  and  _430
REMARK  186  A    between atoms: _435  and  _437
REMARK  187  A    between atoms: _437  and  _438
REMARK  188  A    between atoms: _437  and  _440
REMARK  189  A    between atoms: _440  and  _441
REMARK  190  A    between atoms: _444  and  _446
REMARK  191  A    between atoms: _446  and  _447
REMARK  192  A    between atoms: _446  and  _449
REMARK  193  A    between atoms: _449  and  _450
REMARK  194  A    between atoms: _453  and  _455
REMARK  195  A    between atoms: _455  and  _456
REMARK  196  A    between atoms: _455  and  _458
REMARK  197  A    between atoms: _458  and  _459
REMARK  198  A    between atoms: _462  and  _464
REMARK  199  A    between atoms: _464  and  _465
REMARK  200  A    between atoms: _464  and  _467
REMARK  201  A    between atoms: _467  and  _468
REMARK  202  A    between atoms: _468  and  _469
REMARK  203  A    between atoms: _469  and  _470
REMARK  204  A    between atoms: _470  and  _471
REMARK  205  A    between atoms: _475  and  _477
REMARK  206  A    between atoms: _477  and  _478
REMARK  207  A    between atoms: _477  and  _480
REMARK  208  A    between atoms: _480  and  _481
REMARK  209  A    between atoms: _484  and  _486
REMARK  210  A    between atoms: _486  and  _487
REMARK  211  A    between atoms: _486  and  _489
REMARK  212  A    between atoms: _489  and  _490
REMARK  213  A    between atoms: _493  and  _495
REMARK  214  A    between atoms: _495  and  _496
REMARK  215  A    between atoms: _495  and  _498
REMARK  216  A    between atoms: _498  and  _499
REMARK  217  A    between atoms: _502  and  _504
REMARK  218  A    between atoms: _504  and  _505
REMARK  219  A    between atoms: _504  and  _507
REMARK  220  A    between atoms: _507  and  _508
REMARK  221  A    between atoms: _514  and  _516
REMARK  222  A    between atoms: _516  and  _517
REMARK  223  A    between atoms: _519  and  _521
REMARK  224  A    between atoms: _521  and  _522
REMARK  225  A    between atoms: _521  and  _524
REMARK  226  A    between atoms: _524  and  _525
REMARK  227  A    between atoms: _528  and  _530
REMARK  228  A    between atoms: _530  and  _531
REMARK  229  A    between atoms: _530  and  _533
REMARK  230  A    between atoms: _533  and  _534
REMARK  231  A    between atoms: _536  and  _538
REMARK  232  A    between atoms: _538  and  _539
REMARK  233  A    between atoms: _538  and  _541
REMARK  234  A    between atoms: _541  and  _542
REMARK  235  A    between atoms: _542  and  _543
REMARK  236  A    between atoms: _543  and  _544
REMARK  237  A    between atoms: _544  and  _545
REMARK                            x       y       z     vdW  Elec       q    Type
REMARK                         _______ _______ _______ _____ _____    ______ ____
ROOT
ATOM      1  O   HOH     1      33.273   2.628  -0.857  0.00  0.00    +0.000 OA
ENDROOT
TORSDOF 0
REMARK  Name = ../refined-set-2016/3ubd/3ubd_pocket.pdb
REMARK  237 active torsions:
REMARK  status: ('A' for Active; 'I' for Inactive)
REMARK    1  A    between atoms: _1  and  _5
REMARK    2  A    between atoms: _5  and  _6
REMARK    3  A    between atoms: _5  and  _8
REMARK    4  A    between atoms: _8  and  _9
REMARK    5  A    between atoms: _9  and  _10
REMARK    6  A    between atoms: _13  and  _15
REMARK    7  A    between atoms: _15  and  _16
REMARK    8  A    between atoms: _15  and  _18
REMARK    9  A    between atoms: _18  and  _19
REMARK   10  A    between atoms: _22  and  _24
REMARK   11  A    between atoms: _24  and  _25
REMARK   12  A    between atoms: _28  and  _30
REMARK   13  A    between atoms: _30  and  _31
REMARK   14  A    between atoms: _30  and  _33
REMARK   15  A    between atoms: _33  and  _34
REMARK   16  A    between atoms: _37  and  _39
REMARK   17  A    between atoms: _39  and  _40
REMARK   18  A    between atoms: _39  and  _42
REMARK   19  A    between atoms: _42  and  _43
REMARK   20  A    between atoms: _43  and  _44
REMARK   21  A    between atoms: _49  and  _51
REMARK   22  A    between atoms: _51  and  _52
REMARK   23  A    between atoms: _54  and  _56
REMARK   24  A    between atoms: _56  and  _57
REMARK   25  A    between atoms: _56  and  _59
REMARK   26  A    between atoms: _59  and  _60
REMARK   27  A    between atoms: _62  and  _64
REMARK   28  A    between atoms: _64  and  _65
REMARK   29  A    between atoms: _64  and  _67
REMARK   30  A    between atoms: _67  and  _68
REMARK   31  A    between atoms: _74  and  _76
REMARK   32  A    between atoms: _76  and  _77
REMARK   33  A    between atoms: _79  and  _81
REMARK   34  A    between atoms: _81  and  _82
REMARK   35  A    between atoms: _81  and  _84
REMARK   36  A    between atoms: _84  and  _85
REMARK   37  A    between atoms: _85  and  _86
REMARK   38  A    between atoms: _86  and  _87
REMARK   39  A    between atoms: _87  and  _88
REMARK   40  A    between atoms: _92  and  _94
REMARK   41  A    between atoms: _94  and  _95
REMARK   42  A    between atoms: _94  and  _97
REMARK   43  A    between atoms: _100  and  _102
REMARK   44  A    between atoms: _102  and  _103
REMARK   45  A    between atoms: _102  and  _105
REMARK   46  A    between atoms: _105  and  _106
REMARK   47  A    between atoms: _112  and  _114
REMARK   48  A    between atoms: _114  and  _115
REMARK   49  A    between atoms: _114  and  _117
REMARK   50  A    between atoms: _117  and  _118
REMARK   51  A    between atoms: _123  and  _124
REMARK   52  A    between atoms: _126  and  _128
REMARK   53  A    between atoms: _128  and  _129
REMARK   54  A    between atoms: _132  and  _134
REMARK   55  A    between atoms: _134  and  _135
REMARK   56  A    between atoms: _134  and  _137
REMARK   57  A    between atoms: _137  and  _138
REMARK   58  A    between atoms: _138  and  _139
REMARK   59  A    between atoms: _141  and  _143
REMARK   60  A    between atoms: _143  and  _144
REMARK   61  A    between atoms: _143  and  _146
REMARK   62  A    between atoms: _146  and  _147
REMARK   63  A    between atoms: _147  and  _148
REMARK   64  A    between atoms: _148  and  _149
REMARK   65  A    between atoms: _149  and  _150
REMARK   66  A    between atoms: _154  and  _156
REMARK   67  A    between atoms: _156  and  _157
REMARK   68  A    between atoms: _156  and  _159
REMARK   69  A    between atoms: _162  and  _164
REMARK   70  A    between atoms: _164  and  _165
REMARK   71  A    between atoms: _164  and  _167
REMARK   72  A    between atoms: _167  and  _168
REMARK   73  A    between atoms: _171  and  _173
REMARK   74  A    between atoms: _173  and  _174
REMARK   75  A    between atoms: _173  and  _176
REMARK   76  A    between atoms: _176  and  _177
REMARK   77  A    between atoms: _177  and  _178
REMARK   78  A    between atoms: _178  and  _179
REMARK   79  A    between atoms: _179  and  _180
REMARK   80  A    between atoms: _184  and  _186
REMARK   81  A    between atoms: _186  and  _187
REMARK   82  A    between atoms: _186  and  _189
REMARK   83  A    between atoms: _189  and  _190
REMARK   84  A    between atoms: _190  and  _191
REMARK   85  A    between atoms: _191  and  _192
REMARK   86  A    between atoms: _192  and  _193
REMARK   87  A    between atoms: _197  and  _199
REMARK   88  A    between atoms: _199  and  _200
REMARK   89  A    between atoms: _203  and  _205
REMARK   90  A    between atoms: _205  and  _206
REMARK   91  A    between atoms: _205  and  _208
REMARK   92  A    between atoms: _208  and  _209
REMARK   93  A    between atoms: _212  and  _214
REMARK   94  A    between atoms: _214  and  _215
REMARK   95  A    between atoms: _214  and  _217
REMARK   96  A    between atoms: _217  and  _218
REMARK   97  A    between atoms: _221  and  _223
REMARK   98  A    between atoms: _223  and  _224
REMARK   99  A    between atoms: _223  and  _226
REMARK  100  A    between atoms: _229  and  _231
REMARK  101  A    between atoms: _231  and  _232
REMARK  102  A    between atoms: _231  and  _234
REMARK  103  A    between atoms: _234  and  _235
REMARK  104  A    between atoms: _235  and  _236
REMARK  105  A    between atoms: _236  and  _237
REMARK  106  A    between atoms: _237  and  _238
REMARK  107  A    between atoms: _242  and  _244
REMARK  108  A    between atoms: _244  and  _245
REMARK  109  A    between atoms: _244  and  _247
REMARK  110  A    between atoms: _247  and  _248
REMARK  111  A    between atoms: _251  and  _253
REMARK  112  A    between atoms: _253  and  _254
REMARK  113  A    between atoms: _253  and  _256
REMARK  114  A    between atoms: _256  and  _257
REMARK  115  A    between atoms: _262  and  _264
REMARK  116  A    between atoms: _264  and  _265
REMARK  117  A    between atoms: _264  and  _267
REMARK  118  A    between atoms: _267  and  _268
REMARK  119  A    between atoms: _271  and  _273
REMARK  120  A    between atoms: _273  and  _274
REMARK  121  A    between atoms: _273  and  _276
REMARK  122  A    between atoms: _276  and  _277
REMARK  123  A    between atoms: _280  and  _282
REMARK  124  A    between atoms: _282  and  _283
REMARK  125  A    between atoms: _282  and  _285
REMARK  126  A    between atoms: _285  and  _286
REMARK  127  A    between atoms: _289  and  _291
REMARK  128  A    between atoms: _291  and  _292
REMARK  129  A    between atoms: _291  and  _294
REMARK  130  A    between atoms: _294  and  _295
REMARK  131  A    between atoms: _298  and  _300
REMARK  132  A    between atoms: _300  and  _301
REMARK  133  A    between atoms: _300  and  _303
REMARK  134  A    between atoms: _303  and  _304
REMARK  135  A    between atoms: _307  and  _309
REMARK  136  A    between atoms: _309  and  _310
REMARK  137  A    between atoms: _309  and  _312
REMARK  138  A    between atoms: _312  and  _313
REMARK  139  A    between atoms: _319  and  _321
REMARK  140  A    between atoms: _321  and  _322
REMARK  141  A    between atoms: _321  and  _324
REMARK  142  A    between atoms: _324  and  _325
REMARK  143  A    between atoms: _328  and  _330
REMARK  144  A    between atoms: _330  and  _331
REMARK  145  A    between atoms: _330  and  _333
REMARK  146  A    between atoms: _333  and  _334
REMARK  147  A    between atoms: _334  and  _335
REMARK  148  A    between atoms: _335  and  _336
REMARK  149  A    between atoms: _345  and  _347
REMARK  150  A    between atoms: _347  and  _348
REMARK  151  A    between atoms: _350  and  _352
REMARK  152  A    between atoms: _352  and  _353
REMARK  153  A    between atoms: _355  and  _357
REMARK  154  A    between atoms: _357  and  _358
REMARK  155  A    between atoms: _357  and  _360
REMARK  156  A    between atoms: _360  and  _361
REMARK  157  A    between atoms: _364  and  _366
REMARK  158  A    between atoms: _366  and  _367
REMARK  159  A    between atoms: _366  and  _369
REMARK  160  A    between atoms: _369  and  _370
REMARK  161  A    between atoms: _373  and  _375
REMARK  162  A    between atoms: _375  and  _376
REMARK  163  A    between atoms: _375  and  _378
REMARK  164  A    between atoms: _378  and  _379
REMARK  165  A    between atoms: _385  and  _387
REMARK  166  A    between atoms: _387  and  _388
REMARK  167  A    between atoms: _387  and  _390
REMARK  168  A    between atoms: _390  and  _391
REMARK  169  A    between atoms: _394  and  _396
REMARK  170  A    between atoms: _396  and  _397
REMARK  171  A    between atoms: _396  and  _399
REMARK  172  A    between atoms: _399  and  _400
REMARK  173  A    between atoms: _400  and  _401
REMARK  174  A    between atoms: _401  and  _402
REMARK  175  A    between atoms: _402  and  _403
REMARK  176  A    between atoms: _408  and  _409
REMARK  177  A    between atoms: _414  and  _416
REMARK  178  A    between atoms: _416  and  _417
REMARK  179  A    between atoms: _416  and  _419
REMARK  180  A    between atoms: _419  and  _420
REMARK  181  A    between atoms: _420  and  _421
REMARK  182  A    between atoms: _424  and  _426
REMARK  183  A    between atoms: _426  and  _427
REMARK  184  A    between atoms: _426  and  _429
REMARK  185  A    between atoms: _429  and  _430
REMARK  186  A    between atoms: _435  and  _437
REMARK  187  A    between atoms: _437  and  _438
REMARK  188  A    between atoms: _437  and  _440
REMARK  189  A    between atoms: _440  and  _441
REMARK  190  A    between atoms: _444  and  _446
REMARK  191  A    between atoms: _446  and  _447
REMARK  192  A    between atoms: _446  and  _449
REMARK  193  A    between atoms: _449  and  _450
REMARK  194  A    between atoms: _453  and  _455
REMARK  195  A    between atoms: _455  and  _456
REMARK  196  A    between atoms: _455  and  _458
REMARK  197  A    between atoms: _458  and  _459
REMARK  198  A    between atoms: _462  and  _464
REMARK  199  A    between atoms: _464  and  _465
REMARK  200  A    between atoms: _464  and  _467
REMARK  201  A    between atoms: _467  and  _468
REMARK  202  A    between atoms: _468  and  _469
REMARK  203  A    between atoms: _469  and  _470
REMARK  204  A    between atoms: _470  and  _471
REMARK  205  A    between atoms: _475  and  _477
REMARK  206  A    between atoms: _477  and  _478
REMARK  207  A    between atoms: _477  and  _480
REMARK  208  A    between atoms: _480  and  _481
REMARK  209  A    between atoms: _484  and  _486
REMARK  210  A    between atoms: _486  and  _487
REMARK  211  A    between atoms: _486  and  _489
REMARK  212  A    between atoms: _489  and  _490
REMARK  213  A    between atoms: _493  and  _495
REMARK  214  A    between atoms: _495  and  _496
REMARK  215  A    between atoms: _495  and  _498
REMARK  216  A    between atoms: _498  and  _499
REMARK  217  A    between atoms: _502  and  _504
REMARK  218  A    between atoms: _504  and  _505
REMARK  219  A    between atoms: _504  and  _507
REMARK  220  A    between atoms: _507  and  _508
REMARK  221  A    between atoms: _514  and  _516
REMARK  222  A    between atoms: _516  and  _517
REMARK  223  A    between atoms: _519  and  _521
REMARK  224  A    between atoms: _521  and  _522
REMARK  225  A    between atoms: _521  and  _524
REMARK  226  A    between atoms: _524  and  _525
REMARK  227  A    between atoms: _528  and  _530
REMARK  228  A    between atoms: _530  and  _531
REMARK  229  A    between atoms: _530  and  _533
REMARK  230  A    between atoms: _533  and  _534
REMARK  231  A    between atoms: _536  and  _538
REMARK  232  A    between atoms: _538  and  _539
REMARK  233  A    between atoms: _538  and  _541
REMARK  234  A    between atoms: _541  and  _542
REMARK  235  A    between atoms: _542  and  _543
REMARK  236  A    between atoms: _543  and  _544
REMARK  237  A    between atoms: _544  and  _545
REMARK                            x       y       z     vdW  Elec       q    Type
REMARK                         _______ _______ _______ _____ _____    ______ ____
ROOT
ATOM      1  O   HOH     1      33.818   5.329  -1.547  0.00  0.00    +0.000 OA
ENDROOT
TORSDOF 0
