REMARK  Name = ../refined-set-2016/4b2l/4b2l_pocket.pdb
REMARK  121 active torsions:
REMARK  status: ('A' for Active; 'I' for Inactive)
REMARK    1  A    between atoms: _1  and  _3
REMARK    2  A    between atoms: _3  and  _4
REMARK    3  A    between atoms: _3  and  _6
REMARK    4  A    between atoms: _9  and  _11
REMARK    5  A    between atoms: _11  and  _12
REMARK    6  A    between atoms: _11  and  _14
REMARK    7  A    between atoms: _14  and  _15
REMARK    8  A    between atoms: _15  and  _16
REMARK    9  A    between atoms: _18  and  _20
REMARK   10  A    between atoms: _20  and  _21
REMARK   11  A    between atoms: _20  and  _23
REMARK   12  A    between atoms: _23  and  _24
REMARK   13  A    between atoms: _34  and  _36
REMARK   14  A    between atoms: _36  and  _37
REMARK   15  A    between atoms: _36  and  _39
REMARK   16  A    between atoms: _39  and  _40
REMARK   17  A    between atoms: _43  and  _45
REMARK   18  A    between atoms: _45  and  _46
REMARK   19  A    between atoms: _45  and  _48
REMARK   20  A    between atoms: _48  and  _49
REMARK   21  A    between atoms: _52  and  _54
REMARK   22  A    between atoms: _54  and  _55
REMARK   23  A    between atoms: _54  and  _57
REMARK   24  A    between atoms: _57  and  _58
REMARK   25  A    between atoms: _61  and  _63
REMARK   26  A    between atoms: _63  and  _64
REMARK   27  A    between atoms: _67  and  _69
REMARK   28  A    between atoms: _69  and  _70
REMARK   29  A    between atoms: _69  and  _72
REMARK   30  A    between atoms: _72  and  _73
REMARK   31  A    between atoms: _78  and  _79
REMARK   32  A    between atoms: _81  and  _83
REMARK   33  A    between atoms: _83  and  _84
REMARK   34  A    between atoms: _87  and  _89
REMARK   35  A    between atoms: _89  and  _90
REMARK   36  A    between atoms: _89  and  _92
REMARK   37  A    between atoms: _92  and  _93
REMARK   38  A    between atoms: _93  and  _94
REMARK   39  A    between atoms: _94  and  _95
REMARK   40  A    between atoms: _104  and  _106
REMARK   41  A    between atoms: _106  and  _107
REMARK   42  A    between atoms: _106  and  _109
REMARK   43  A    between atoms: _109  and  _110
REMARK   44  A    between atoms: _115  and  _117
REMARK   45  A    between atoms: _117  and  _118
REMARK   46  A    between atoms: _117  and  _120
REMARK   47  A    between atoms: _120  and  _121
REMARK   48  A    between atoms: _121  and  _122
REMARK   49  A    between atoms: _127  and  _129
REMARK   50  A    between atoms: _129  and  _130
REMARK   51  A    between atoms: _129  and  _132
REMARK   52  A    between atoms: _132  and  _133
REMARK   53  A    between atoms: _133  and  _134
REMARK   54  A    between atoms: _136  and  _138
REMARK   55  A    between atoms: _138  and  _139
REMARK   56  A    between atoms: _138  and  _141
REMARK   57  A    between atoms: _141  and  _142
REMARK   58  A    between atoms: _145  and  _147
REMARK   59  A    between atoms: _147  and  _148
REMARK   60  A    between atoms: _147  and  _150
REMARK   61  A    between atoms: _150  and  _151
REMARK   62  A    between atoms: _154  and  _156
REMARK   63  A    between atoms: _156  and  _157
REMARK   64  A    between atoms: _156  and  _159
REMARK   65  A    between atoms: _162  and  _164
REMARK   66  A    between atoms: _164  and  _165
REMARK   67  A    between atoms: _164  and  _167
REMARK   68  A    between atoms: _167  and  _168
REMARK   69  A    between atoms: _168  and  _169
REMARK   70  A    between atoms: _174  and  _176
REMARK   71  A    between atoms: _176  and  _177
REMARK   72  A    between atoms: _176  and  _179
REMARK   73  A    between atoms: _179  and  _180
REMARK   74  A    between atoms: _180  and  _181
REMARK   75  A    between atoms: _186  and  _188
REMARK   76  A    between atoms: _188  and  _189
REMARK   77  A    between atoms: _192  and  _194
REMARK   78  A    between atoms: _194  and  _195
REMARK   79  A    between atoms: _194  and  _197
REMARK   80  A    between atoms: _197  and  _198
REMARK   81  A    between atoms: _198  and  _199
REMARK   82  A    between atoms: _202  and  _204
REMARK   83  A    between atoms: _204  and  _205
REMARK   84  A    between atoms: _204  and  _207
REMARK   85  A    between atoms: _207  and  _208
REMARK   86  A    between atoms: _211  and  _213
REMARK   87  A    between atoms: _213  and  _214
REMARK   88  A    between atoms: _213  and  _216
REMARK   89  A    between atoms: _216  and  _217
REMARK   90  A    between atoms: _217  and  _218
REMARK   91  A    between atoms: _220  and  _222
REMARK   92  A    between atoms: _222  and  _223
REMARK   93  A    between atoms: _222  and  _225
REMARK   94  A    between atoms: _225  and  _226
REMARK   95  A    between atoms: _229  and  _231
REMARK   96  A    between atoms: _231  and  _232
REMARK   97  A    between atoms: _231  and  _234
REMARK   98  A    between atoms: _234  and  _235
REMARK   99  A    between atoms: _235  and  _236
REMARK  100  A    between atoms: _236  and  _237
REMARK  101  A    between atoms: _237  and  _238
REMARK  102  A    between atoms: _242  and  _244
REMARK  103  A    between atoms: _244  and  _245
REMARK  104  A    between atoms: _244  and  _247
REMARK  105  A    between atoms: _247  and  _248
REMARK  106  A    between atoms: _248  and  _249
REMARK  107  A    between atoms: _252  and  _254
REMARK  108  A    between atoms: _254  and  _255
REMARK  109  A    between atoms: _254  and  _257
REMARK  110  A    between atoms: _257  and  _258
REMARK  111  A    between atoms: _261  and  _263
REMARK  112  A    between atoms: _263  and  _264
REMARK  113  A    between atoms: _263  and  _266
REMARK  114  A    between atoms: _266  and  _267
REMARK  115  A    between atoms: _270  and  _272
REMARK  116  A    between atoms: _272  and  _273
REMARK  117  A    between atoms: _272  and  _275
REMARK  118  A    between atoms: _275  and  _276
REMARK  119  A    between atoms: _279  and  _281
REMARK  120  A    between atoms: _281  and  _282
REMARK  121  A    between atoms: _281  and  _284
REMARK                            x       y       z     vdW  Elec       q    Type
REMARK                         _______ _______ _______ _____ _____    ______ ____
ROOT
ATOM      1  CA  TRP A   3      16.366   1.674   0.391  0.00  0.00    +0.153 C 
ENDROOT
BRANCH   1   3
ATOM      2  C   MET A   2      15.515   2.229  -1.844  0.00  0.00    +0.241 C 
ATOM      3  N   TRP A   3      16.531   2.035  -1.009  0.00  0.00    -0.297 N 
ATOM      4  H   TRP A   3      17.497   2.147  -1.377  0.00  0.00    +0.150 HD
ATOM      5  O   MET A   2      14.339   2.293  -1.484  0.00  0.00    -0.273 OA
BRANCH   2   6
ATOM      6  CA  MET A   2      15.870   2.382  -3.313  0.00  0.00    +0.149 C 
BRANCH   6   8
ATOM      7  C   VAL A   1      15.452   0.557  -4.882  0.00  0.00    +0.238 C 
ATOM      8  N   MET A   2      14.993   1.482  -4.050  0.00  0.00    -0.297 N 
ATOM      9  H   MET A   2      13.965   1.568  -3.918  0.00  0.00    +0.150 HD
ATOM     10  O   VAL A   1      16.629   0.507  -5.259  0.00  0.00    -0.274 OA
BRANCH   7  11
ATOM     11  CA  VAL A   1      14.440  -0.468  -5.362  0.00  0.00    +0.145 C 
BRANCH  11  12
ATOM     12  CB  VAL A   1      14.542  -1.662  -4.428  0.00  0.00    +0.025 C 
ATOM     13  CG2 VAL A   1      14.092  -1.277  -3.021  0.00  0.00    +0.002 C 
ATOM     14  CG1 VAL A   1      13.720  -2.814  -4.982  0.00  0.00    +0.002 C 
ENDBRANCH  11  12
BRANCH  11  15
ATOM     15  N   VAL A   1      14.749  -0.884  -6.721  0.00  0.00    -0.238 NA
ATOM     16  H   VAL A   1      15.713  -1.207  -6.938  0.00  0.00    +0.142 HD
ENDBRANCH  11  15
ENDBRANCH   7  11
ENDBRANCH   6   8
BRANCH   6  17
ATOM     17  CB  MET A   2      15.709   3.834  -3.779  0.00  0.00    +0.041 C 
BRANCH  17  18
ATOM     18  CG  MET A   2      16.033   4.014  -5.277  0.00  0.00    +0.060 C 
BRANCH  18  19
ATOM     19  SD  MET A   2      16.145   5.739  -5.797  0.00  0.00    -0.139 S 
ATOM     20  CE  MET A   2      17.640   6.237  -4.945  0.00  0.00    +0.069 C 
ENDBRANCH  18  19
ENDBRANCH  17  18
ENDBRANCH   6  17
ENDBRANCH   2   6
ENDBRANCH   1   3
BRANCH   1  21
ATOM     21  C   TRP A   3      17.157   2.604   1.297  0.00  0.00    +0.241 C 
ATOM     22  N   ILE A   4      16.448   3.356   2.135  0.00  0.00    -0.297 N 
ATOM     23  H   ILE A   4      15.410   3.311   2.091  0.00  0.00    +0.150 HD
ATOM     24  O   TRP A   3      18.393   2.635   1.239  0.00  0.00    -0.273 OA
BRANCH  22  25
ATOM     25  CA  ILE A   4      17.070   4.240   3.112  0.00  0.00    +0.149 C 
BRANCH  25  26
ATOM     26  C   ILE A   4      16.965   3.599   4.483  0.00  0.00    +0.241 C 
ATOM     27  N   ASP A   5      18.107   3.380   5.124  0.00  0.00    -0.298 N 
ATOM     28  H   ASP A   5      18.979   3.785   4.727  0.00  0.00    +0.150 HD
ATOM     29  O   ILE A   4      15.867   3.315   4.957  0.00  0.00    -0.273 OA
BRANCH  27  30
ATOM     30  CA  ASP A   5      18.206   2.604   6.352  0.00  0.00    +0.148 C 
BRANCH  30  31
ATOM     31  C   ASP A   5      18.645   3.540   7.475  0.00  0.00    +0.227 C 
ATOM     32  O   ASP A   5      19.711   4.150   7.383  0.00  0.00    -0.286 OA
ENDBRANCH  30  31
BRANCH  30  33
ATOM     33  CB  ASP A   5      19.250   1.505   6.090  0.00  0.00    +0.142 C 
BRANCH  33  34
ATOM     34  CG  ASP A   5      19.393   0.504   7.213  0.00  0.00    +0.367 C 
ATOM     35  OD2 ASP A   5      18.647   0.543   8.201  0.00  0.00    -0.246 OA
ATOM     36  OD1 ASP A   5      20.295  -0.357   7.096  0.00  0.00    -0.246 OA
ENDBRANCH  33  34
ENDBRANCH  30  33
ENDBRANCH  27  30
ENDBRANCH  25  26
BRANCH  25  37
ATOM     37  CB  ILE A   4      16.409   5.635   3.133  0.00  0.00    +0.027 C 
ATOM     38  CG2 ILE A   4      16.960   6.469   4.284  0.00  0.00    +0.002 C 
BRANCH  37  39
ATOM     39  CG1 ILE A   4      16.624   6.363   1.798  0.00  0.00    +0.002 C 
ATOM     40  CD1 ILE A   4      15.830   7.646   1.646  0.00  0.00    +0.000 C 
ENDBRANCH  37  39
ENDBRANCH  25  37
ENDBRANCH  22  25
ENDBRANCH   1  21
BRANCH   1  41
ATOM     41  CB  TRP A   3      16.855   0.239   0.604  0.00  0.00    +0.057 C 
BRANCH  41  42
ATOM     42  CG  TRP A   3      16.538  -0.300   1.951  0.00  0.00    -0.002 A 
ATOM     43  CD1 TRP A   3      16.836   0.256   3.162  0.00  0.00    +0.068 A 
ATOM     44  NE1 TRP A   3      16.367  -0.553   4.179  0.00  0.00    -0.352 N 
ATOM     45  HE1 TRP A   3      16.433  -0.347   5.196  0.00  0.00    +0.166 HD
ATOM     46  CE2 TRP A   3      15.801  -1.671   3.627  0.00  0.00    +0.056 A 
ATOM     47  CZ2 TRP A   3      15.196  -2.772   4.238  0.00  0.00    +0.017 A 
ATOM     48  CH2 TRP A   3      14.690  -3.750   3.428  0.00  0.00    +0.001 A 
ATOM     49  CZ3 TRP A   3      14.777  -3.656   2.025  0.00  0.00    +0.000 A 
ATOM     50  CE3 TRP A   3      15.368  -2.561   1.416  0.00  0.00    +0.001 A 
ATOM     51  CD2 TRP A   3      15.886  -1.542   2.223  0.00  0.00    +0.013 A 
ENDBRANCH  41  42
ENDBRANCH   1  41
TORSDOF 20
REMARK  Name = ../refined-set-2016/4b2l/4b2l_pocket.pdb
REMARK  121 active torsions:
REMARK  status: ('A' for Active; 'I' for Inactive)
REMARK    1  A    between atoms: _1  and  _3
REMARK    2  A    between atoms: _3  and  _4
REMARK    3  A    between atoms: _3  and  _6
REMARK    4  A    between atoms: _9  and  _11
REMARK    5  A    between atoms: _11  and  _12
REMARK    6  A    between atoms: _11  and  _14
REMARK    7  A    between atoms: _14  and  _15
REMARK    8  A    between atoms: _15  and  _16
REMARK    9  A    between atoms: _18  and  _20
REMARK   10  A    between atoms: _20  and  _21
REMARK   11  A    between atoms: _20  and  _23
REMARK   12  A    between atoms: _23  and  _24
REMARK   13  A    between atoms: _34  and  _36
REMARK   14  A    between atoms: _36  and  _37
REMARK   15  A    between atoms: _36  and  _39
REMARK   16  A    between atoms: _39  and  _40
REMARK   17  A    between atoms: _43  and  _45
REMARK   18  A    between atoms: _45  and  _46
REMARK   19  A    between atoms: _45  and  _48
REMARK   20  A    between atoms: _48  and  _49
REMARK   21  A    between atoms: _52  and  _54
REMARK   22  A    between atoms: _54  and  _55
REMARK   23  A    between atoms: _54  and  _57
REMARK   24  A    between atoms: _57  and  _58
REMARK   25  A    between atoms: _61  and  _63
REMARK   26  A    between atoms: _63  and  _64
REMARK   27  A    between atoms: _67  and  _69
REMARK   28  A    between atoms: _69  and  _70
REMARK   29  A    between atoms: _69  and  _72
REMARK   30  A    between atoms: _72  and  _73
REMARK   31  A    between atoms: _78  and  _79
REMARK   32  A    between atoms: _81  and  _83
REMARK   33  A    between atoms: _83  and  _84
REMARK   34  A    between atoms: _87  and  _89
REMARK   35  A    between atoms: _89  and  _90
REMARK   36  A    between atoms: _89  and  _92
REMARK   37  A    between atoms: _92  and  _93
REMARK   38  A    between atoms: _93  and  _94
REMARK   39  A    between atoms: _94  and  _95
REMARK   40  A    between atoms: _104  and  _106
REMARK   41  A    between atoms: _106  and  _107
REMARK   42  A    between atoms: _106  and  _109
REMARK   43  A    between atoms: _109  and  _110
REMARK   44  A    between atoms: _115  and  _117
REMARK   45  A    between atoms: _117  and  _118
REMARK   46  A    between atoms: _117  and  _120
REMARK   47  A    between atoms: _120  and  _121
REMARK   48  A    between atoms: _121  and  _122
REMARK   49  A    between atoms: _127  and  _129
REMARK   50  A    between atoms: _129  and  _130
REMARK   51  A    between atoms: _129  and  _132
REMARK   52  A    between atoms: _132  and  _133
REMARK   53  A    between atoms: _133  and  _134
REMARK   54  A    between atoms: _136  and  _138
REMARK   55  A    between atoms: _138  and  _139
REMARK   56  A    between atoms: _138  and  _141
REMARK   57  A    between atoms: _141  and  _142
REMARK   58  A    between atoms: _145  and  _147
REMARK   59  A    between atoms: _147  and  _148
REMARK   60  A    between atoms: _147  and  _150
REMARK   61  A    between atoms: _150  and  _151
REMARK   62  A    between atoms: _154  and  _156
REMARK   63  A    between atoms: _156  and  _157
REMARK   64  A    between atoms: _156  and  _159
REMARK   65  A    between atoms: _162  and  _164
REMARK   66  A    between atoms: _164  and  _165
REMARK   67  A    between atoms: _164  and  _167
REMARK   68  A    between atoms: _167  and  _168
REMARK   69  A    between atoms: _168  and  _169
REMARK   70  A    between atoms: _174  and  _176
REMARK   71  A    between atoms: _176  and  _177
REMARK   72  A    between atoms: _176  and  _179
REMARK   73  A    between atoms: _179  and  _180
REMARK   74  A    between atoms: _180  and  _181
REMARK   75  A    between atoms: _186  and  _188
REMARK   76  A    between atoms: _188  and  _189
REMARK   77  A    between atoms: _192  and  _194
REMARK   78  A    between atoms: _194  and  _195
REMARK   79  A    between atoms: _194  and  _197
REMARK   80  A    between atoms: _197  and  _198
REMARK   81  A    between atoms: _198  and  _199
REMARK   82  A    between atoms: _202  and  _204
REMARK   83  A    between atoms: _204  and  _205
REMARK   84  A    between atoms: _204  and  _207
REMARK   85  A    between atoms: _207  and  _208
REMARK   86  A    between atoms: _211  and  _213
REMARK   87  A    between atoms: _213  and  _214
REMARK   88  A    between atoms: _213  and  _216
REMARK   89  A    between atoms: _216  and  _217
REMARK   90  A    between atoms: _217  and  _218
REMARK   91  A    between atoms: _220  and  _222
REMARK   92  A    between atoms: _222  and  _223
REMARK   93  A    between atoms: _222  and  _225
REMARK   94  A    between atoms: _225  and  _226
REMARK   95  A    between atoms: _229  and  _231
REMARK   96  A    between atoms: _231  and  _232
REMARK   97  A    between atoms: _231  and  _234
REMARK   98  A    between atoms: _234  and  _235
REMARK   99  A    between atoms: _235  and  _236
REMARK  100  A    between atoms: _236  and  _237
REMARK  101  A    between atoms: _237  and  _238
REMARK  102  A    between atoms: _242  and  _244
REMARK  103  A    between atoms: _244  and  _245
REMARK  104  A    between atoms: _244  and  _247
REMARK  105  A    between atoms: _247  and  _248
REMARK  106  A    between atoms: _248  and  _249
REMARK  107  A    between atoms: _252  and  _254
REMARK  108  A    between atoms: _254  and  _255
REMARK  109  A    between atoms: _254  and  _257
REMARK  110  A    between atoms: _257  and  _258
REMARK  111  A    between atoms: _261  and  _263
REMARK  112  A    between atoms: _263  and  _264
REMARK  113  A    between atoms: _263  and  _266
REMARK  114  A    between atoms: _266  and  _267
REMARK  115  A    between atoms: _270  and  _272
REMARK  116  A    between atoms: _272  and  _273
REMARK  117  A    between atoms: _272  and  _275
REMARK  118  A    between atoms: _275  and  _276
REMARK  119  A    between atoms: _279  and  _281
REMARK  120  A    between atoms: _281  and  _282
REMARK  121  A    between atoms: _281  and  _284
REMARK                            x       y       z     vdW  Elec       q    Type
REMARK                         _______ _______ _______ _____ _____    ______ ____
ROOT
ATOM      1  CA  TYR A   3      21.237   1.356  -0.558  0.00  0.00    +0.153 C 
ENDROOT
BRANCH   1   3
ATOM      2  C   ALA A   2      20.105   1.227  -2.707  0.00  0.00    +0.241 C 
ATOM      3  N   TYR A   3      21.228   1.221  -2.006  0.00  0.00    -0.297 N 
ATOM      4  H   TYR A   3      22.133   1.116  -2.507  0.00  0.00    +0.150 HD
ATOM      5  O   ALA A   2      19.011   1.423  -2.196  0.00  0.00    -0.273 OA
BRANCH   2   6
ATOM      6  CA  ALA A   2      20.233   0.963  -4.200  0.00  0.00    +0.149 C 
ATOM      7  CB  ALA A   2      19.915   2.204  -4.997  0.00  0.00    +0.031 C 
BRANCH   6  10
ATOM      8  C   ILE A   1      19.628  -1.383  -4.271  0.00  0.00    +0.238 C 
ATOM      9  O   ILE A   1      20.744  -1.733  -3.863  0.00  0.00    -0.274 OA
ATOM     10  N   ALA A   2      19.318  -0.118  -4.532  0.00  0.00    -0.297 N 
ATOM     11  H   ALA A   2      18.406   0.103  -4.981  0.00  0.00    +0.150 HD
BRANCH   8  12
ATOM     12  CA  ILE A   1      18.550  -2.421  -4.558  0.00  0.00    +0.145 C 
BRANCH  12  13
ATOM     13  N   ILE A   1      18.917  -3.141  -5.779  0.00  0.00    -0.238 NA
ATOM     14  H   ILE A   1      19.738  -3.779  -5.752  0.00  0.00    +0.142 HD
ENDBRANCH  12  13
BRANCH  12  15
ATOM     15  CB  ILE A   1      18.404  -3.373  -3.354  0.00  0.00    +0.025 C 
ATOM     16  CG2 ILE A   1      18.120  -2.577  -2.076  0.00  0.00    +0.002 C 
BRANCH  15  17
ATOM     17  CG1 ILE A   1      17.296  -4.406  -3.624  0.00  0.00    +0.002 C 
ATOM     18  CD1 ILE A   1      17.246  -5.564  -2.634  0.00  0.00    +0.000 C 
ENDBRANCH  15  17
ENDBRANCH  12  15
ENDBRANCH   8  12
ENDBRANCH   6  10
ENDBRANCH   2   6
ENDBRANCH   1   3
BRANCH   1  19
ATOM     19  C   TYR A   3      21.839   2.668  -0.075  0.00  0.00    +0.241 C 
ATOM     20  N   ALA A   4      21.176   3.309   0.876  0.00  0.00    -0.297 N 
ATOM     21  H   ALA A   4      20.234   2.970   1.157  0.00  0.00    +0.150 HD
ATOM     22  O   TYR A   3      22.899   3.093  -0.538  0.00  0.00    -0.273 OA
BRANCH  20  23
ATOM     23  CA  ALA A   4      21.738   4.475   1.534  0.00  0.00    +0.149 C 
ATOM     24  CB  ALA A   4      21.174   5.754   0.950  0.00  0.00    +0.031 C 
BRANCH  23  25
ATOM     25  C   ALA A   4      21.470   4.422   3.035  0.00  0.00    +0.241 C 
ATOM     26  N   ARG A   5      22.527   4.575   3.821  0.00  0.00    -0.298 N 
ATOM     27  H   ARG A   5      23.475   4.560   3.393  0.00  0.00    +0.150 HD
ATOM     28  O   ALA A   4      20.325   4.246   3.475  0.00  0.00    -0.273 OA
BRANCH  26  29
ATOM     29  CA  ARG A   5      22.414   4.762   5.247  0.00  0.00    +0.137 C 
BRANCH  29  30
ATOM     30  C   ARG A   5      22.116   6.232   5.546  0.00  0.00    +0.227 C 
ATOM     31  O   ARG A   5      22.758   7.132   4.984  0.00  0.00    -0.286 OA
ENDBRANCH  29  30
BRANCH  29  32
ATOM     32  CB  ARG A   5      23.726   4.343   5.912  0.00  0.00    +0.031 C 
BRANCH  32  33
ATOM     33  CG  ARG A   5      23.775   4.646   7.402  0.00  0.00    +0.045 C 
BRANCH  33  34
ATOM     34  CD  ARG A   5      22.923   3.670   8.204  0.00  0.00    +0.174 C 
BRANCH  34  35
ATOM     35  NE  ARG A   5      22.337   4.311   9.379  0.00  0.00    -0.265 N 
ATOM     36  CZ  ARG A   5      23.035   4.668  10.451  0.00  0.00    +0.342 C 
ATOM     37  NH2 ARG A   5      22.431   5.258  11.481  0.00  0.00    -0.292 N 
ATOM     38 HH21 ARG A   5      22.983   5.535  12.318  0.00  0.00    +0.255 HD
ATOM     39 HH22 ARG A   5      21.408   5.441  11.448  0.00  0.00    +0.255 HD
ATOM     40  NH1 ARG A   5      24.346   4.441  10.484  0.00  0.00    -0.292 N 
ATOM     41 HH11 ARG A   5      24.901   4.717  11.319  0.00  0.00    +0.255 HD
ATOM     42 HH12 ARG A   5      24.816   3.987   9.675  0.00  0.00    +0.255 HD
ATOM     43  HE  ARG A   5      21.314   4.499   9.376  0.00  0.00    +0.259 HD
ENDBRANCH  34  35
ENDBRANCH  33  34
ENDBRANCH  32  33
ENDBRANCH  29  32
ENDBRANCH  26  29
ENDBRANCH  23  25
ENDBRANCH  20  23
ENDBRANCH   1  19
BRANCH   1  44
ATOM     44  CB  TYR A   3      21.983   0.176   0.072  0.00  0.00    +0.055 C 
BRANCH  44  45
ATOM     45  CG  TYR A   3      22.071   0.248   1.575  0.00  0.00    -0.020 A 
ATOM     46  CD2 TYR A   3      21.053  -0.262   2.370  0.00  0.00    -0.001 A 
ATOM     47  CE2 TYR A   3      21.125  -0.197   3.747  0.00  0.00    +0.036 A 
ATOM     48  CZ  TYR A   3      22.223   0.389   4.338  0.00  0.00    +0.134 A 
ATOM     49  CE1 TYR A   3      23.252   0.903   3.570  0.00  0.00    +0.036 A 
ATOM     50  CD1 TYR A   3      23.168   0.837   2.201  0.00  0.00    -0.001 A 
BRANCH  48  51
ATOM     51  OH  TYR A   3      22.291   0.458   5.704  0.00  0.00    -0.506 OA
ATOM     52  HH  TYR A   3      21.479   0.047   6.095  0.00  0.00    +0.292 HD
ENDBRANCH  48  51
ENDBRANCH  44  45
ENDBRANCH   1  44
TORSDOF 19
REMARK  Name = ../refined-set-2016/4b2l/4b2l_pocket.pdb
REMARK  121 active torsions:
REMARK  status: ('A' for Active; 'I' for Inactive)
REMARK    1  A    between atoms: _1  and  _3
REMARK    2  A    between atoms: _3  and  _4
REMARK    3  A    between atoms: _3  and  _6
REMARK    4  A    between atoms: _9  and  _11
REMARK    5  A    between atoms: _11  and  _12
REMARK    6  A    between atoms: _11  and  _14
REMARK    7  A    between atoms: _14  and  _15
REMARK    8  A    between atoms: _15  and  _16
REMARK    9  A    between atoms: _18  and  _20
REMARK   10  A    between atoms: _20  and  _21
REMARK   11  A    between atoms: _20  and  _23
REMARK   12  A    between atoms: _23  and  _24
REMARK   13  A    between atoms: _34  and  _36
REMARK   14  A    between atoms: _36  and  _37
REMARK   15  A    between atoms: _36  and  _39
REMARK   16  A    between atoms: _39  and  _40
REMARK   17  A    between atoms: _43  and  _45
REMARK   18  A    between atoms: _45  and  _46
REMARK   19  A    between atoms: _45  and  _48
REMARK   20  A    between atoms: _48  and  _49
REMARK   21  A    between atoms: _52  and  _54
REMARK   22  A    between atoms: _54  and  _55
REMARK   23  A    between atoms: _54  and  _57
REMARK   24  A    between atoms: _57  and  _58
REMARK   25  A    between atoms: _61  and  _63
REMARK   26  A    between atoms: _63  and  _64
REMARK   27  A    between atoms: _67  and  _69
REMARK   28  A    between atoms: _69  and  _70
REMARK   29  A    between atoms: _69  and  _72
REMARK   30  A    between atoms: _72  and  _73
REMARK   31  A    between atoms: _78  and  _79
REMARK   32  A    between atoms: _81  and  _83
REMARK   33  A    between atoms: _83  and  _84
REMARK   34  A    between atoms: _87  and  _89
REMARK   35  A    between atoms: _89  and  _90
REMARK   36  A    between atoms: _89  and  _92
REMARK   37  A    between atoms: _92  and  _93
REMARK   38  A    between atoms: _93  and  _94
REMARK   39  A    between atoms: _94  and  _95
REMARK   40  A    between atoms: _104  and  _106
REMARK   41  A    between atoms: _106  and  _107
REMARK   42  A    between atoms: _106  and  _109
REMARK   43  A    between atoms: _109  and  _110
REMARK   44  A    between atoms: _115  and  _117
REMARK   45  A    between atoms: _117  and  _118
REMARK   46  A    between atoms: _117  and  _120
REMARK   47  A    between atoms: _120  and  _121
REMARK   48  A    between atoms: _121  and  _122
REMARK   49  A    between atoms: _127  and  _129
REMARK   50  A    between atoms: _129  and  _130
REMARK   51  A    between atoms: _129  and  _132
REMARK   52  A    between atoms: _132  and  _133
REMARK   53  A    between atoms: _133  and  _134
REMARK   54  A    between atoms: _136  and  _138
REMARK   55  A    between atoms: _138  and  _139
REMARK   56  A    between atoms: _138  and  _141
REMARK   57  A    between atoms: _141  and  _142
REMARK   58  A    between atoms: _145  and  _147
REMARK   59  A    between atoms: _147  and  _148
REMARK   60  A    between atoms: _147  and  _150
REMARK   61  A    between atoms: _150  and  _151
REMARK   62  A    between atoms: _154  and  _156
REMARK   63  A    between atoms: _156  and  _157
REMARK   64  A    between atoms: _156  and  _159
REMARK   65  A    between atoms: _162  and  _164
REMARK   66  A    between atoms: _164  and  _165
REMARK   67  A    between atoms: _164  and  _167
REMARK   68  A    between atoms: _167  and  _168
REMARK   69  A    between atoms: _168  and  _169
REMARK   70  A    between atoms: _174  and  _176
REMARK   71  A    between atoms: _176  and  _177
REMARK   72  A    between atoms: _176  and  _179
REMARK   73  A    between atoms: _179  and  _180
REMARK   74  A    between atoms: _180  and  _181
REMARK   75  A    between atoms: _186  and  _188
REMARK   76  A    between atoms: _188  and  _189
REMARK   77  A    between atoms: _192  and  _194
REMARK   78  A    between atoms: _194  and  _195
REMARK   79  A    between atoms: _194  and  _197
REMARK   80  A    between atoms: _197  and  _198
REMARK   81  A    between atoms: _198  and  _199
REMARK   82  A    between atoms: _202  and  _204
REMARK   83  A    between atoms: _204  and  _205
REMARK   84  A    between atoms: _204  and  _207
REMARK   85  A    between atoms: _207  and  _208
REMARK   86  A    between atoms: _211  and  _213
REMARK   87  A    between atoms: _213  and  _214
REMARK   88  A    between atoms: _213  and  _216
REMARK   89  A    between atoms: _216  and  _217
REMARK   90  A    between atoms: _217  and  _218
REMARK   91  A    between atoms: _220  and  _222
REMARK   92  A    between atoms: _222  and  _223
REMARK   93  A    between atoms: _222  and  _225
REMARK   94  A    between atoms: _225  and  _226
REMARK   95  A    between atoms: _229  and  _231
REMARK   96  A    between atoms: _231  and  _232
REMARK   97  A    between atoms: _231  and  _234
REMARK   98  A    between atoms: _234  and  _235
REMARK   99  A    between atoms: _235  and  _236
REMARK  100  A    between atoms: _236  and  _237
REMARK  101  A    between atoms: _237  and  _238
REMARK  102  A    between atoms: _242  and  _244
REMARK  103  A    between atoms: _244  and  _245
REMARK  104  A    between atoms: _244  and  _247
REMARK  105  A    between atoms: _247  and  _248
REMARK  106  A    between atoms: _248  and  _249
REMARK  107  A    between atoms: _252  and  _254
REMARK  108  A    between atoms: _254  and  _255
REMARK  109  A    between atoms: _254  and  _257
REMARK  110  A    between atoms: _257  and  _258
REMARK  111  A    between atoms: _261  and  _263
REMARK  112  A    between atoms: _263  and  _264
REMARK  113  A    between atoms: _263  and  _266
REMARK  114  A    between atoms: _266  and  _267
REMARK  115  A    between atoms: _270  and  _272
REMARK  116  A    between atoms: _272  and  _273
REMARK  117  A    between atoms: _272  and  _275
REMARK  118  A    between atoms: _275  and  _276
REMARK  119  A    between atoms: _279  and  _281
REMARK  120  A    between atoms: _281  and  _282
REMARK  121  A    between atoms: _281  and  _284
REMARK                            x       y       z     vdW  Elec       q    Type
REMARK                         _______ _______ _______ _____ _____    ______ ____
ROOT
ATOM      1  CA  GLN A   8      18.659  13.285  -3.731  0.00  0.00    +0.149 C 
ENDROOT
BRANCH   1   3
ATOM      2  C   GLN A   7      16.514  14.295  -3.152  0.00  0.00    +0.241 C 
ATOM      3  N   GLN A   8      17.652  13.726  -2.765  0.00  0.00    -0.297 N 
ATOM      4  H   GLN A   8      17.831  13.591  -1.749  0.00  0.00    +0.150 HD
ATOM      5  O   GLN A   7      16.211  14.445  -4.335  0.00  0.00    -0.273 OA
BRANCH   2   6
ATOM      6  CA  GLN A   7      15.557  14.756  -2.052  0.00  0.00    +0.149 C 
BRANCH   6   8
ATOM      7  C   VAL A   6      14.916  12.517  -1.337  0.00  0.00    +0.241 C 
ATOM      8  N   GLN A   7      15.330  13.739  -1.027  0.00  0.00    -0.297 N 
ATOM      9  H   GLN A   7      15.497  13.979  -0.029  0.00  0.00    +0.150 HD
ATOM     10  O   VAL A   6      14.582  12.191  -2.472  0.00  0.00    -0.273 OA
BRANCH   7  11
ATOM     11  CA  VAL A   6      14.915  11.504  -0.202  0.00  0.00    +0.149 C 
BRANCH  11  13
ATOM     12  C   LEU A   5      17.315  11.216   0.014  0.00  0.00    +0.241 C 
ATOM     13  N   VAL A   6      16.162  11.585   0.553  0.00  0.00    -0.297 N 
ATOM     14  H   VAL A   6      16.145  11.938   1.531  0.00  0.00    +0.150 HD
ATOM     15  O   LEU A   5      17.395  10.748  -1.116  0.00  0.00    -0.273 OA
BRANCH  12  16
ATOM     16  CA  LEU A   5      18.567  11.406   0.868  0.00  0.00    +0.149 C 
BRANCH  16  18
ATOM     17  C   LEU A   4      18.405  13.811   1.143  0.00  0.00    +0.241 C 
ATOM     18  N   LEU A   5      18.492  12.606   1.699  0.00  0.00    -0.297 N 
ATOM     19  H   LEU A   5      18.507  12.517   2.735  0.00  0.00    +0.150 HD
ATOM     20  O   LEU A   4      18.336  13.973  -0.084  0.00  0.00    -0.273 OA
BRANCH  17  21
ATOM     21  CA  LEU A   4      18.384  15.005   2.095  0.00  0.00    +0.149 C 
BRANCH  21  23
ATOM     22  C   MET A   3      16.233  14.472   3.112  0.00  0.00    +0.241 C 
ATOM     23  N   LEU A   4      17.527  14.749   3.243  0.00  0.00    -0.297 N 
ATOM     24  H   LEU A   4      17.940  14.784   4.197  0.00  0.00    +0.150 HD
ATOM     25  O   MET A   3      15.662  14.444   2.019  0.00  0.00    -0.273 OA
BRANCH  22  26
ATOM     26  CA  MET A   3      15.475  14.144   4.402  0.00  0.00    +0.149 C 
BRANCH  26  28
ATOM     27  C   GLN A   2      16.600  12.044   4.911  0.00  0.00    +0.241 C 
ATOM     28  N   MET A   3      16.270  13.287   5.268  0.00  0.00    -0.297 N 
ATOM     29  H   MET A   3      16.589  13.652   6.188  0.00  0.00    +0.150 HD
ATOM     30  O   GLN A   2      16.243  11.535   3.840  0.00  0.00    -0.273 OA
BRANCH  27  31
ATOM     31  CA  GLN A   2      17.457  11.258   5.904  0.00  0.00    +0.149 C 
BRANCH  31  33
ATOM     32  C   HIS A   1      19.455  12.597   5.571  0.00  0.00    +0.239 C 
ATOM     33  N   GLN A   2      18.569  12.069   6.406  0.00  0.00    -0.297 N 
ATOM     34  H   GLN A   2      18.665  12.233   7.429  0.00  0.00    +0.150 HD
ATOM     35  O   HIS A   1      19.392  12.432   4.362  0.00  0.00    -0.274 OA
BRANCH  32  36
ATOM     36  CA  HIS A   1      20.556  13.456   6.198  0.00  0.00    +0.151 C 
BRANCH  36  37
ATOM     37  N   HIS A   1      19.969  14.278   7.233  0.00  0.00    -0.238 NA
ATOM     38  H   HIS A   1      20.305  14.164   8.211  0.00  0.00    +0.142 HD
ENDBRANCH  36  37
BRANCH  36  39
ATOM     39  CB  HIS A   1      21.637  12.591   6.833  0.00  0.00    +0.074 C 
BRANCH  39  40
ATOM     40  CG  HIS A   1      22.402  11.752   5.868  0.00  0.00    +0.082 A 
ATOM     41  CD2 HIS A   1      22.957  10.527   6.009  0.00  0.00    +0.115 A 
ATOM     42  NE2 HIS A   1      23.570  10.221   4.819  0.00  0.00    -0.221 NA
ATOM     43  CE1 HIS A   1      23.394  11.223   3.977  0.00  0.00    +0.199 A 
ATOM     44  ND1 HIS A   1      22.693  12.161   4.584  0.00  0.00    -0.227 NA
ENDBRANCH  39  40
ENDBRANCH  36  39
ENDBRANCH  32  36
ENDBRANCH  31  33
BRANCH  31  45
ATOM     45  CB  GLN A   2      16.601  10.786   7.078  0.00  0.00    +0.039 C 
BRANCH  45  46
ATOM     46  CG  GLN A   2      15.407   9.902   6.715  0.00  0.00    +0.087 C 
BRANCH  46  47
ATOM     47  CD  GLN A   2      14.617   9.531   7.951  0.00  0.00    +0.219 C 
ATOM     48  NE2 GLN A   2      15.313   9.414   9.070  0.00  0.00    -0.329 N 
ATOM     49 HE21 GLN A   2      14.830   9.177   9.960  0.00  0.00    +0.145 HD
ATOM     50 HE22 GLN A   2      16.343   9.559   9.059  0.00  0.00    +0.145 HD
ATOM     51  OE1 GLN A   2      13.394   9.370   7.906  0.00  0.00    -0.275 OA
ENDBRANCH  46  47
ENDBRANCH  45  46
ENDBRANCH  31  45
ENDBRANCH  27  31
ENDBRANCH  26  28
BRANCH  26  52
ATOM     52  CB  MET A   3      15.055  15.407   5.165  0.00  0.00    +0.041 C 
BRANCH  52  53
ATOM     53  CG  MET A   3      14.108  15.108   6.326  0.00  0.00    +0.060 C 
BRANCH  53  54
ATOM     54  SD  MET A   3      13.574  16.612   7.154  0.00  0.00    -0.139 S 
ATOM     55  CE  MET A   3      12.595  17.372   5.856  0.00  0.00    +0.069 C 
ENDBRANCH  53  54
ENDBRANCH  52  53
ENDBRANCH  26  52
ENDBRANCH  22  26
ENDBRANCH  21  23
BRANCH  21  56
ATOM     56  CB  LEU A   4      19.802  15.313   2.583  0.00  0.00    +0.029 C 
BRANCH  56  57
ATOM     57  CG  LEU A   4      20.812  15.836   1.573  0.00  0.00    +0.002 C 
ATOM     58  CD2 LEU A   4      22.136  16.084   2.271  0.00  0.00    +0.000 C 
ATOM     59  CD1 LEU A   4      20.278  17.109   0.954  0.00  0.00    +0.000 C 
ENDBRANCH  56  57
ENDBRANCH  21  56
ENDBRANCH  17  21
ENDBRANCH  16  18
BRANCH  16  60
ATOM     60  CB  LEU A   5      18.843  10.163   1.718  0.00  0.00    +0.029 C 
BRANCH  60  61
ATOM     61  CG  LEU A   5      20.287  10.016   2.212  0.00  0.00    +0.002 C 
ATOM     62  CD2 LEU A   5      20.397   8.979   3.330  0.00  0.00    +0.000 C 
ATOM     63  CD1 LEU A   5      21.215   9.668   1.047  0.00  0.00    +0.000 C 
ENDBRANCH  60  61
ENDBRANCH  16  60
ENDBRANCH  12  16
ENDBRANCH  11  13
BRANCH  11  64
ATOM     64  CB  VAL A   6      13.697  11.652   0.716  0.00  0.00    +0.027 C 
ATOM     65  CG2 VAL A   6      13.554  10.387   1.569  0.00  0.00    +0.002 C 
ATOM     66  CG1 VAL A   6      12.441  11.933  -0.093  0.00  0.00    +0.002 C 
ENDBRANCH  11  64
ENDBRANCH   7  11
ENDBRANCH   6   8
BRANCH   6  67
ATOM     67  CB  GLN A   7      16.080  16.027  -1.404  0.00  0.00    +0.039 C 
BRANCH  67  68
ATOM     68  CG  GLN A   7      15.038  16.720  -0.564  0.00  0.00    +0.087 C 
BRANCH  68  69
ATOM     69  CD  GLN A   7      15.636  17.758   0.360  0.00  0.00    +0.219 C 
ATOM     70  OE1 GLN A   7      14.961  18.271   1.249  0.00  0.00    -0.275 OA
ATOM     71  NE2 GLN A   7      16.915  18.064   0.160  0.00  0.00    -0.329 N 
ATOM     72 HE21 GLN A   7      17.384  18.764   0.770  0.00  0.00    +0.145 HD
ATOM     73 HE22 GLN A   7      17.446  17.603  -0.606  0.00  0.00    +0.145 HD
ENDBRANCH  68  69
ENDBRANCH  67  68
ENDBRANCH   6  67
ENDBRANCH   2   6
ENDBRANCH   1   3
BRANCH   1  74
ATOM     74  C   GLN A   8      18.181  12.101  -4.574  0.00  0.00    +0.241 C 
ATOM     75  N   ALA A   9      17.314  11.264  -4.009  0.00  0.00    -0.297 N 
ATOM     76  H   ALA A   9      16.935  11.479  -3.065  0.00  0.00    +0.150 HD
ATOM     77  O   GLN A   8      18.614  11.929  -5.711  0.00  0.00    -0.273 OA
BRANCH  75  78
ATOM     78  CA  ALA A   9      16.887  10.046  -4.698  0.00  0.00    +0.149 C 
ATOM     79  CB  ALA A   9      15.930   9.233  -3.816  0.00  0.00    +0.031 C 
BRANCH  78  80
ATOM     80  C   ALA A   9      16.238  10.332  -6.039  0.00  0.00    +0.241 C 
ATOM     81  N   GLU A  10      15.658  11.521  -6.183  0.00  0.00    -0.297 N 
ATOM     82  H   GLU A  10      15.705  12.209  -5.405  0.00  0.00    +0.150 HD
ATOM     83  O   ALA A   9      16.264   9.481  -6.933  0.00  0.00    -0.273 OA
BRANCH  81  84
ATOM     84  CA  GLU A  10      14.956  11.878  -7.415  0.00  0.00    +0.149 C 
BRANCH  84  85
ATOM     85  C   GLU A  10      15.866  11.761  -8.642  0.00  0.00    +0.241 C 
ATOM     86  N   ASP A  11      17.156  12.033  -8.459  0.00  0.00    -0.297 N 
ATOM     87  H   ASP A  11      17.484  12.330  -7.518  0.00  0.00    +0.150 HD
ATOM     88  O   GLU A  10      15.400  11.420  -9.734  0.00  0.00    -0.273 OA
BRANCH  86  89
ATOM     89  CA  ASP A  11      18.123  11.924  -9.551  0.00  0.00    +0.160 C 
BRANCH  89  90
ATOM     90  C   ASP A  11      18.182  10.508 -10.127  0.00  0.00    +0.241 C 
ATOM     91  N   MET A  12      18.286   9.507  -9.254  0.00  0.00    -0.297 N 
ATOM     92  H   MET A  12      18.335   9.718  -8.237  0.00  0.00    +0.150 HD
ATOM     93  O   ASP A  11      18.144  10.324 -11.346  0.00  0.00    -0.273 OA
BRANCH  91  94
ATOM     94  CA  MET A  12      18.332   8.117  -9.704  0.00  0.00    +0.149 C 
BRANCH  94  95
ATOM     95  C   MET A  12      16.985   7.711 -10.285  0.00  0.00    +0.241 C 
ATOM     96  N   ILE A  13      15.907   8.214  -9.689  0.00  0.00    -0.297 N 
ATOM     97  H   ILE A  13      16.023   8.848  -8.872  0.00  0.00    +0.150 HD
ATOM     98  O   MET A  12      16.923   6.956 -11.255  0.00  0.00    -0.273 OA
BRANCH  96  99
ATOM     99  CA  ILE A  13      14.570   7.892 -10.161  0.00  0.00    +0.149 C 
BRANCH  99 100
ATOM    100  C   ILE A  13      14.414   8.396 -11.601  0.00  0.00    +0.241 C 
ATOM    101  N   LYS A  14      14.871   9.615 -11.849  0.00  0.00    -0.297 N 
ATOM    102  H   LYS A  14      15.256  10.185 -11.069  0.00  0.00    +0.150 HD
ATOM    103  O   ILE A  13      13.916   7.684 -12.470  0.00  0.00    -0.273 OA
BRANCH 101 104
ATOM    104  CA  LYS A  14      14.843  10.170 -13.197  0.00  0.00    +0.149 C 
BRANCH 104 105
ATOM    105  C   LYS A  14      15.680   9.334 -14.163  0.00  0.00    +0.241 C 
ATOM    106  N   GLU A  15      16.877   8.958 -13.727  0.00  0.00    -0.298 N 
ATOM    107  H   GLU A  15      17.176   9.230 -12.769  0.00  0.00    +0.150 HD
ATOM    108  O   LYS A  14      15.252   9.041 -15.287  0.00  0.00    -0.273 OA
BRANCH 106 109
ATOM    109  CA  GLU A  15      17.786   8.171 -14.560  0.00  0.00    +0.137 C 
BRANCH 109 110
ATOM    110  C   GLU A  15      17.164   6.851 -14.998  0.00  0.00    +0.227 C 
ATOM    111  O   GLU A  15      17.343   6.412 -16.134  0.00  0.00    -0.286 OA
ENDBRANCH 109 110
BRANCH 109 112
ATOM    112  CB  GLU A  15      19.095   7.885 -13.814  0.00  0.00    +0.039 C 
BRANCH 112 113
ATOM    113  CG  GLU A  15      20.124   9.003 -13.872  0.00  0.00    +0.116 C 
BRANCH 113 114
ATOM    114  CD  GLU A  15      20.967   8.959 -15.138  0.00  0.00    +0.365 C 
ATOM    115  OE2 GLU A  15      22.050   8.330 -15.109  0.00  0.00    -0.246 OA
ATOM    116  OE1 GLU A  15      20.552   9.553 -16.160  0.00  0.00    -0.246 OA
ENDBRANCH 113 114
ENDBRANCH 112 113
ENDBRANCH 109 112
ENDBRANCH 106 109
ENDBRANCH 104 105
BRANCH 104 117
ATOM    117  CB  LYS A  14      15.370  11.600 -13.180  0.00  0.00    +0.029 C 
BRANCH 117 118
ATOM    118  CG  LYS A  14      14.408  12.626 -12.635  0.00  0.00    +0.000 C 
BRANCH 118 119
ATOM    119  CD  LYS A  14      15.059  14.002 -12.662  0.00  0.00    -0.024 C 
BRANCH 119 120
ATOM    120  CE  LYS A  14      14.153  15.054 -12.067  0.00  0.00    -0.086 C 
BRANCH 120 121
ATOM    121  NZ  LYS A  14      14.837  16.375 -12.003  0.00  0.00    +0.380 N 
ATOM    122  HZ1 LYS A  14      15.689  16.295 -11.411  0.00  0.00    -0.089 HD
ATOM    123  HZ2 LYS A  14      14.192  17.079 -11.590  0.00  0.00    -0.089 HD
ATOM    124  HZ3 LYS A  14      15.107  16.671 -12.963  0.00  0.00    -0.089 HD
ENDBRANCH 120 121
ENDBRANCH 119 120
ENDBRANCH 118 119
ENDBRANCH 117 118
ENDBRANCH 104 117
ENDBRANCH 101 104
ENDBRANCH  99 100
BRANCH  99 125
ATOM    125  CB  ILE A  13      13.477   8.479  -9.231  0.00  0.00    +0.027 C 
ATOM    126  CG2 ILE A  13      12.117   8.379  -9.889  0.00  0.00    +0.002 C 
BRANCH 125 127
ATOM    127  CG1 ILE A  13      13.493   7.752  -7.876  0.00  0.00    +0.002 C 
ATOM    128  CD1 ILE A  13      12.702   8.482  -6.782  0.00  0.00    +0.000 C 
ENDBRANCH 125 127
ENDBRANCH  99 125
ENDBRANCH  96  99
ENDBRANCH  94  95
BRANCH  94 129
ATOM    129  CB  MET A  12      18.719   7.153  -8.572  0.00  0.00    +0.041 C 
BRANCH 129 130
ATOM    130  CG  MET A  12      18.988   5.721  -9.056  0.00  0.00    +0.060 C 
BRANCH 130 131
ATOM    131  SD  MET A  12      19.206   4.474  -7.761  0.00  0.00    -0.139 S 
ATOM    132  CE  MET A  12      19.764   3.077  -8.727  0.00  0.00    +0.069 C 
ENDBRANCH 130 131
ENDBRANCH 129 130
ENDBRANCH  94 129
ENDBRANCH  91  94
ENDBRANCH  89  90
BRANCH  89 133
ATOM    133  CB  ASP A  11      19.518  12.358  -9.090  0.00  0.00    +0.143 C 
BRANCH 133 134
ATOM    134  CG  ASP A  11      19.617  13.852  -8.858  0.00  0.00    +0.367 C 
ATOM    135  OD2 ASP A  11      20.561  14.276  -8.159  0.00  0.00    -0.246 OA
ATOM    136  OD1 ASP A  11      18.758  14.600  -9.383  0.00  0.00    -0.246 OA
ENDBRANCH 133 134
ENDBRANCH  89 133
ENDBRANCH  86  89
ENDBRANCH  84  85
BRANCH  84 137
ATOM    137  CB  GLU A  10      14.348  13.286  -7.326  0.00  0.00    +0.041 C 
BRANCH 137 138
ATOM    138  CG  GLU A  10      13.567  13.706  -8.572  0.00  0.00    +0.116 C 
BRANCH 138 139
ATOM    139  CD  GLU A  10      12.686  14.934  -8.353  0.00  0.00    +0.365 C 
ATOM    140  OE2 GLU A  10      12.812  15.604  -7.306  0.00  0.00    -0.246 OA
ATOM    141  OE1 GLU A  10      11.850  15.225  -9.228  0.00  0.00    -0.246 OA
ENDBRANCH 138 139
ENDBRANCH 137 138
ENDBRANCH  84 137
ENDBRANCH  81  84
ENDBRANCH  78  80
ENDBRANCH  75  78
ENDBRANCH   1  74
BRANCH   1 142
ATOM    142  CB  GLN A   8      19.956  12.868  -3.033  0.00  0.00    +0.039 C 
BRANCH 142 143
ATOM    143  CG  GLN A   8      20.716  13.949  -2.296  0.00  0.00    +0.087 C 
BRANCH 143 144
ATOM    144  CD  GLN A   8      21.768  13.335  -1.389  0.00  0.00    +0.219 C 
ATOM    145  OE1 GLN A   8      21.709  13.475  -0.170  0.00  0.00    -0.275 OA
ATOM    146  NE2 GLN A   8      22.713  12.610  -1.982  0.00  0.00    -0.329 N 
ATOM    147 HE21 GLN A   8      23.440  12.135  -1.410  0.00  0.00    +0.145 HD
ATOM    148 HE22 GLN A   8      22.725  12.518  -3.018  0.00  0.00    +0.145 HD
ENDBRANCH 143 144
ENDBRANCH 142 143
ENDBRANCH   1 142
TORSDOF 67
REMARK  Name = ../refined-set-2016/4b2l/4b2l_pocket.pdb
REMARK  121 active torsions:
REMARK  status: ('A' for Active; 'I' for Inactive)
REMARK    1  A    between atoms: _1  and  _3
REMARK    2  A    between atoms: _3  and  _4
REMARK    3  A    between atoms: _3  and  _6
REMARK    4  A    between atoms: _9  and  _11
REMARK    5  A    between atoms: _11  and  _12
REMARK    6  A    between atoms: _11  and  _14
REMARK    7  A    between atoms: _14  and  _15
REMARK    8  A    between atoms: _15  and  _16
REMARK    9  A    between atoms: _18  and  _20
REMARK   10  A    between atoms: _20  and  _21
REMARK   11  A    between atoms: _20  and  _23
REMARK   12  A    between atoms: _23  and  _24
REMARK   13  A    between atoms: _34  and  _36
REMARK   14  A    between atoms: _36  and  _37
REMARK   15  A    between atoms: _36  and  _39
REMARK   16  A    between atoms: _39  and  _40
REMARK   17  A    between atoms: _43  and  _45
REMARK   18  A    between atoms: _45  and  _46
REMARK   19  A    between atoms: _45  and  _48
REMARK   20  A    between atoms: _48  and  _49
REMARK   21  A    between atoms: _52  and  _54
REMARK   22  A    between atoms: _54  and  _55
REMARK   23  A    between atoms: _54  and  _57
REMARK   24  A    between atoms: _57  and  _58
REMARK   25  A    between atoms: _61  and  _63
REMARK   26  A    between atoms: _63  and  _64
REMARK   27  A    between atoms: _67  and  _69
REMARK   28  A    between atoms: _69  and  _70
REMARK   29  A    between atoms: _69  and  _72
REMARK   30  A    between atoms: _72  and  _73
REMARK   31  A    between atoms: _78  and  _79
REMARK   32  A    between atoms: _81  and  _83
REMARK   33  A    between atoms: _83  and  _84
REMARK   34  A    between atoms: _87  and  _89
REMARK   35  A    between atoms: _89  and  _90
REMARK   36  A    between atoms: _89  and  _92
REMARK   37  A    between atoms: _92  and  _93
REMARK   38  A    between atoms: _93  and  _94
REMARK   39  A    between atoms: _94  and  _95
REMARK   40  A    between atoms: _104  and  _106
REMARK   41  A    between atoms: _106  and  _107
REMARK   42  A    between atoms: _106  and  _109
REMARK   43  A    between atoms: _109  and  _110
REMARK   44  A    between atoms: _115  and  _117
REMARK   45  A    between atoms: _117  and  _118
REMARK   46  A    between atoms: _117  and  _120
REMARK   47  A    between atoms: _120  and  _121
REMARK   48  A    between atoms: _121  and  _122
REMARK   49  A    between atoms: _127  and  _129
REMARK   50  A    between atoms: _129  and  _130
REMARK   51  A    between atoms: _129  and  _132
REMARK   52  A    between atoms: _132  and  _133
REMARK   53  A    between atoms: _133  and  _134
REMARK   54  A    between atoms: _136  and  _138
REMARK   55  A    between atoms: _138  and  _139
REMARK   56  A    between atoms: _138  and  _141
REMARK   57  A    between atoms: _141  and  _142
REMARK   58  A    between atoms: _145  and  _147
REMARK   59  A    between atoms: _147  and  _148
REMARK   60  A    between atoms: _147  and  _150
REMARK   61  A    between atoms: _150  and  _151
REMARK   62  A    between atoms: _154  and  _156
REMARK   63  A    between atoms: _156  and  _157
REMARK   64  A    between atoms: _156  and  _159
REMARK   65  A    between atoms: _162  and  _164
REMARK   66  A    between atoms: _164  and  _165
REMARK   67  A    between atoms: _164  and  _167
REMARK   68  A    between atoms: _167  and  _168
REMARK   69  A    between atoms: _168  and  _169
REMARK   70  A    between atoms: _174  and  _176
REMARK   71  A    between atoms: _176  and  _177
REMARK   72  A    between atoms: _176  and  _179
REMARK   73  A    between atoms: _179  and  _180
REMARK   74  A    between atoms: _180  and  _181
REMARK   75  A    between atoms: _186  and  _188
REMARK   76  A    between atoms: _188  and  _189
REMARK   77  A    between atoms: _192  and  _194
REMARK   78  A    between atoms: _194  and  _195
REMARK   79  A    between atoms: _194  and  _197
REMARK   80  A    between atoms: _197  and  _198
REMARK   81  A    between atoms: _198  and  _199
REMARK   82  A    between atoms: _202  and  _204
REMARK   83  A    between atoms: _204  and  _205
REMARK   84  A    between atoms: _204  and  _207
REMARK   85  A    between atoms: _207  and  _208
REMARK   86  A    between atoms: _211  and  _213
REMARK   87  A    between atoms: _213  and  _214
REMARK   88  A    between atoms: _213  and  _216
REMARK   89  A    between atoms: _216  and  _217
REMARK   90  A    between atoms: _217  and  _218
REMARK   91  A    between atoms: _220  and  _222
REMARK   92  A    between atoms: _222  and  _223
REMARK   93  A    between atoms: _222  and  _225
REMARK   94  A    between atoms: _225  and  _226
REMARK   95  A    between atoms: _229  and  _231
REMARK   96  A    between atoms: _231  and  _232
REMARK   97  A    between atoms: _231  and  _234
REMARK   98  A    between atoms: _234  and  _235
REMARK   99  A    between atoms: _235  and  _236
REMARK  100  A    between atoms: _236  and  _237
REMARK  101  A    between atoms: _237  and  _238
REMARK  102  A    between atoms: _242  and  _244
REMARK  103  A    between atoms: _244  and  _245
REMARK  104  A    between atoms: _244  and  _247
REMARK  105  A    between atoms: _247  and  _248
REMARK  106  A    between atoms: _248  and  _249
REMARK  107  A    between atoms: _252  and  _254
REMARK  108  A    between atoms: _254  and  _255
REMARK  109  A    between atoms: _254  and  _257
REMARK  110  A    between atoms: _257  and  _258
REMARK  111  A    between atoms: _261  and  _263
REMARK  112  A    between atoms: _263  and  _264
REMARK  113  A    between atoms: _263  and  _266
REMARK  114  A    between atoms: _266  and  _267
REMARK  115  A    between atoms: _270  and  _272
REMARK  116  A    between atoms: _272  and  _273
REMARK  117  A    between atoms: _272  and  _275
REMARK  118  A    between atoms: _275  and  _276
REMARK  119  A    between atoms: _279  and  _281
REMARK  120  A    between atoms: _281  and  _282
REMARK  121  A    between atoms: _281  and  _284
REMARK                            x       y       z     vdW  Elec       q    Type
REMARK                         _______ _______ _______ _____ _____    ______ ____
ROOT
ATOM      1  C   LEU A   2      10.980   3.018  -0.690  0.00  0.00    +0.241 C 
ATOM      2  N   ILE A   3      11.956   2.481   0.034  0.00  0.00    -0.297 N 
ATOM      3  H   ILE A   3      12.887   2.341  -0.407  0.00  0.00    +0.150 HD
ATOM      4  O   LEU A   2       9.853   3.252  -0.244  0.00  0.00    -0.273 OA
ENDROOT
BRANCH   1   5
ATOM      5  CA  LEU A   2      11.305   3.312  -2.134  0.00  0.00    +0.149 C 
BRANCH   5   7
ATOM      6  C   LEU A   1      10.839   1.639  -3.860  0.00  0.00    +0.238 C 
ATOM      7  N   LEU A   2      10.415   2.500  -2.952  0.00  0.00    -0.297 N 
ATOM      8  H   LEU A   2       9.389   2.604  -2.814  0.00  0.00    +0.150 HD
ATOM      9  O   LEU A   1      12.016   1.513  -4.165  0.00  0.00    -0.274 OA
BRANCH   6  10
ATOM     10  CA  LEU A   1       9.777   0.799  -4.540  0.00  0.00    +0.145 C 
BRANCH  10  11
ATOM     11  N   LEU A   1       9.910   0.918  -5.994  0.00  0.00    -0.238 NA
ATOM     12  H   LEU A   1      10.862   0.971  -6.410  0.00  0.00    +0.142 HD
ENDBRANCH  10  11
BRANCH  10  13
ATOM     13  CB  LEU A   1       9.913  -0.671  -4.115  0.00  0.00    +0.026 C 
BRANCH  13  14
ATOM     14  CG  LEU A   1       9.842  -1.008  -2.621  0.00  0.00    +0.002 C 
ATOM     15  CD2 LEU A   1       8.470  -0.706  -1.993  0.00  0.00    +0.000 C 
ATOM     16  CD1 LEU A   1      10.164  -2.492  -2.414  0.00  0.00    +0.000 C 
ENDBRANCH  13  14
ENDBRANCH  10  13
ENDBRANCH   6  10
ENDBRANCH   5   7
BRANCH   5  17
ATOM     17  CB  LEU A   2      11.115   4.798  -2.430  0.00  0.00    +0.029 C 
BRANCH  17  18
ATOM     18  CG  LEU A   2      11.782   5.813  -1.496  0.00  0.00    +0.002 C 
ATOM     19  CD2 LEU A   2      13.286   5.599  -1.389  0.00  0.00    +0.000 C 
ATOM     20  CD1 LEU A   2      11.470   7.234  -1.982  0.00  0.00    +0.000 C 
ENDBRANCH  17  18
ENDBRANCH   5  17
ENDBRANCH   1   5
BRANCH   2  21
ATOM     21  CA  ILE A   3      11.771   2.083   1.417  0.00  0.00    +0.149 C 
BRANCH  21  22
ATOM     22  C   ILE A   3      12.465   3.079   2.322  0.00  0.00    +0.241 C 
ATOM     23  N   VAL A   4      11.787   3.493   3.389  0.00  0.00    -0.298 N 
ATOM     24  H   VAL A   4      10.766   3.304   3.445  0.00  0.00    +0.150 HD
ATOM     25  O   ILE A   3      13.606   3.460   2.054  0.00  0.00    -0.273 OA
BRANCH  23  26
ATOM     26  CA  VAL A   4      12.441   4.207   4.485  0.00  0.00    +0.137 C 
BRANCH  26  27
ATOM     27  CB  VAL A   4      11.912   5.639   4.652  0.00  0.00    +0.026 C 
ATOM     28  CG2 VAL A   4      12.753   6.401   5.701  0.00  0.00    +0.002 C 
ATOM     29  CG1 VAL A   4      11.935   6.359   3.298  0.00  0.00    +0.002 C 
ENDBRANCH  26  27
BRANCH  26  30
ATOM     30  C   VAL A   4      12.197   3.408   5.750  0.00  0.00    +0.227 C 
ATOM     31  O   VAL A   4      11.059   3.343   6.240  0.00  0.00    -0.286 OA
ENDBRANCH  26  30
ENDBRANCH  23  26
ENDBRANCH  21  22
BRANCH  21  32
ATOM     32  CB  ILE A   3      12.329   0.665   1.656  0.00  0.00    +0.027 C 
ATOM     33  CG2 ILE A   3      12.508   0.359   3.150  0.00  0.00    +0.002 C 
BRANCH  32  34
ATOM     34  CG1 ILE A   3      11.418  -0.378   0.998  0.00  0.00    +0.002 C 
ATOM     35  CD1 ILE A   3      12.069  -1.723   0.775  0.00  0.00    +0.000 C 
ENDBRANCH  32  34
ENDBRANCH  21  32
ENDBRANCH   2  21
TORSDOF 15
REMARK  Name = ../refined-set-2016/4b2l/4b2l_pocket.pdb
REMARK  121 active torsions:
REMARK  status: ('A' for Active; 'I' for Inactive)
REMARK    1  A    between atoms: _1  and  _3
REMARK    2  A    between atoms: _3  and  _4
REMARK    3  A    between atoms: _3  and  _6
REMARK    4  A    between atoms: _9  and  _11
REMARK    5  A    between atoms: _11  and  _12
REMARK    6  A    between atoms: _11  and  _14
REMARK    7  A    between atoms: _14  and  _15
REMARK    8  A    between atoms: _15  and  _16
REMARK    9  A    between atoms: _18  and  _20
REMARK   10  A    between atoms: _20  and  _21
REMARK   11  A    between atoms: _20  and  _23
REMARK   12  A    between atoms: _23  and  _24
REMARK   13  A    between atoms: _34  and  _36
REMARK   14  A    between atoms: _36  and  _37
REMARK   15  A    between atoms: _36  and  _39
REMARK   16  A    between atoms: _39  and  _40
REMARK   17  A    between atoms: _43  and  _45
REMARK   18  A    between atoms: _45  and  _46
REMARK   19  A    between atoms: _45  and  _48
REMARK   20  A    between atoms: _48  and  _49
REMARK   21  A    between atoms: _52  and  _54
REMARK   22  A    between atoms: _54  and  _55
REMARK   23  A    between atoms: _54  and  _57
REMARK   24  A    between atoms: _57  and  _58
REMARK   25  A    between atoms: _61  and  _63
REMARK   26  A    between atoms: _63  and  _64
REMARK   27  A    between atoms: _67  and  _69
REMARK   28  A    between atoms: _69  and  _70
REMARK   29  A    between atoms: _69  and  _72
REMARK   30  A    between atoms: _72  and  _73
REMARK   31  A    between atoms: _78  and  _79
REMARK   32  A    between atoms: _81  and  _83
REMARK   33  A    between atoms: _83  and  _84
REMARK   34  A    between atoms: _87  and  _89
REMARK   35  A    between atoms: _89  and  _90
REMARK   36  A    between atoms: _89  and  _92
REMARK   37  A    between atoms: _92  and  _93
REMARK   38  A    between atoms: _93  and  _94
REMARK   39  A    between atoms: _94  and  _95
REMARK   40  A    between atoms: _104  and  _106
REMARK   41  A    between atoms: _106  and  _107
REMARK   42  A    between atoms: _106  and  _109
REMARK   43  A    between atoms: _109  and  _110
REMARK   44  A    between atoms: _115  and  _117
REMARK   45  A    between atoms: _117  and  _118
REMARK   46  A    between atoms: _117  and  _120
REMARK   47  A    between atoms: _120  and  _121
REMARK   48  A    between atoms: _121  and  _122
REMARK   49  A    between atoms: _127  and  _129
REMARK   50  A    between atoms: _129  and  _130
REMARK   51  A    between atoms: _129  and  _132
REMARK   52  A    between atoms: _132  and  _133
REMARK   53  A    between atoms: _133  and  _134
REMARK   54  A    between atoms: _136  and  _138
REMARK   55  A    between atoms: _138  and  _139
REMARK   56  A    between atoms: _138  and  _141
REMARK   57  A    between atoms: _141  and  _142
REMARK   58  A    between atoms: _145  and  _147
REMARK   59  A    between atoms: _147  and  _148
REMARK   60  A    between atoms: _147  and  _150
REMARK   61  A    between atoms: _150  and  _151
REMARK   62  A    between atoms: _154  and  _156
REMARK   63  A    between atoms: _156  and  _157
REMARK   64  A    between atoms: _156  and  _159
REMARK   65  A    between atoms: _162  and  _164
REMARK   66  A    between atoms: _164  and  _165
REMARK   67  A    between atoms: _164  and  _167
REMARK   68  A    between atoms: _167  and  _168
REMARK   69  A    between atoms: _168  and  _169
REMARK   70  A    between atoms: _174  and  _176
REMARK   71  A    between atoms: _176  and  _177
REMARK   72  A    between atoms: _176  and  _179
REMARK   73  A    between atoms: _179  and  _180
REMARK   74  A    between atoms: _180  and  _181
REMARK   75  A    between atoms: _186  and  _188
REMARK   76  A    between atoms: _188  and  _189
REMARK   77  A    between atoms: _192  and  _194
REMARK   78  A    between atoms: _194  and  _195
REMARK   79  A    between atoms: _194  and  _197
REMARK   80  A    between atoms: _197  and  _198
REMARK   81  A    between atoms: _198  and  _199
REMARK   82  A    between atoms: _202  and  _204
REMARK   83  A    between atoms: _204  and  _205
REMARK   84  A    between atoms: _204  and  _207
REMARK   85  A    between atoms: _207  and  _208
REMARK   86  A    between atoms: _211  and  _213
REMARK   87  A    between atoms: _213  and  _214
REMARK   88  A    between atoms: _213  and  _216
REMARK   89  A    between atoms: _216  and  _217
REMARK   90  A    between atoms: _217  and  _218
REMARK   91  A    between atoms: _220  and  _222
REMARK   92  A    between atoms: _222  and  _223
REMARK   93  A    between atoms: _222  and  _225
REMARK   94  A    between atoms: _225  and  _226
REMARK   95  A    between atoms: _229  and  _231
REMARK   96  A    between atoms: _231  and  _232
REMARK   97  A    between atoms: _231  and  _234
REMARK   98  A    between atoms: _234  and  _235
REMARK   99  A    between atoms: _235  and  _236
REMARK  100  A    between atoms: _236  and  _237
REMARK  101  A    between atoms: _237  and  _238
REMARK  102  A    between atoms: _242  and  _244
REMARK  103  A    between atoms: _244  and  _245
REMARK  104  A    between atoms: _244  and  _247
REMARK  105  A    between atoms: _247  and  _248
REMARK  106  A    between atoms: _248  and  _249
REMARK  107  A    between atoms: _252  and  _254
REMARK  108  A    between atoms: _254  and  _255
REMARK  109  A    between atoms: _254  and  _257
REMARK  110  A    between atoms: _257  and  _258
REMARK  111  A    between atoms: _261  and  _263
REMARK  112  A    between atoms: _263  and  _264
REMARK  113  A    between atoms: _263  and  _266
REMARK  114  A    between atoms: _266  and  _267
REMARK  115  A    between atoms: _270  and  _272
REMARK  116  A    between atoms: _272  and  _273
REMARK  117  A    between atoms: _272  and  _275
REMARK  118  A    between atoms: _275  and  _276
REMARK  119  A    between atoms: _279  and  _281
REMARK  120  A    between atoms: _281  and  _282
REMARK  121  A    between atoms: _281  and  _284
REMARK                            x       y       z     vdW  Elec       q    Type
REMARK                         _______ _______ _______ _____ _____    ______ ____
ROOT
ATOM      1  O   HOH     1      17.525   1.277  -7.841  0.00  0.00    +0.000 OA
ENDROOT
TORSDOF 0
REMARK  Name = ../refined-set-2016/4b2l/4b2l_pocket.pdb
REMARK  121 active torsions:
REMARK  status: ('A' for Active; 'I' for Inactive)
REMARK    1  A    between atoms: _1  and  _3
REMARK    2  A    between atoms: _3  and  _4
REMARK    3  A    between atoms: _3  and  _6
REMARK    4  A    between atoms: _9  and  _11
REMARK    5  A    between atoms: _11  and  _12
REMARK    6  A    between atoms: _11  and  _14
REMARK    7  A    between atoms: _14  and  _15
REMARK    8  A    between atoms: _15  and  _16
REMARK    9  A    between atoms: _18  and  _20
REMARK   10  A    between atoms: _20  and  _21
REMARK   11  A    between atoms: _20  and  _23
REMARK   12  A    between atoms: _23  and  _24
REMARK   13  A    between atoms: _34  and  _36
REMARK   14  A    between atoms: _36  and  _37
REMARK   15  A    between atoms: _36  and  _39
REMARK   16  A    between atoms: _39  and  _40
REMARK   17  A    between atoms: _43  and  _45
REMARK   18  A    between atoms: _45  and  _46
REMARK   19  A    between atoms: _45  and  _48
REMARK   20  A    between atoms: _48  and  _49
REMARK   21  A    between atoms: _52  and  _54
REMARK   22  A    between atoms: _54  and  _55
REMARK   23  A    between atoms: _54  and  _57
REMARK   24  A    between atoms: _57  and  _58
REMARK   25  A    between atoms: _61  and  _63
REMARK   26  A    between atoms: _63  and  _64
REMARK   27  A    between atoms: _67  and  _69
REMARK   28  A    between atoms: _69  and  _70
REMARK   29  A    between atoms: _69  and  _72
REMARK   30  A    between atoms: _72  and  _73
REMARK   31  A    between atoms: _78  and  _79
REMARK   32  A    between atoms: _81  and  _83
REMARK   33  A    between atoms: _83  and  _84
REMARK   34  A    between atoms: _87  and  _89
REMARK   35  A    between atoms: _89  and  _90
REMARK   36  A    between atoms: _89  and  _92
REMARK   37  A    between atoms: _92  and  _93
REMARK   38  A    between atoms: _93  and  _94
REMARK   39  A    between atoms: _94  and  _95
REMARK   40  A    between atoms: _104  and  _106
REMARK   41  A    between atoms: _106  and  _107
REMARK   42  A    between atoms: _106  and  _109
REMARK   43  A    between atoms: _109  and  _110
REMARK   44  A    between atoms: _115  and  _117
REMARK   45  A    between atoms: _117  and  _118
REMARK   46  A    between atoms: _117  and  _120
REMARK   47  A    between atoms: _120  and  _121
REMARK   48  A    between atoms: _121  and  _122
REMARK   49  A    between atoms: _127  and  _129
REMARK   50  A    between atoms: _129  and  _130
REMARK   51  A    between atoms: _129  and  _132
REMARK   52  A    between atoms: _132  and  _133
REMARK   53  A    between atoms: _133  and  _134
REMARK   54  A    between atoms: _136  and  _138
REMARK   55  A    between atoms: _138  and  _139
REMARK   56  A    between atoms: _138  and  _141
REMARK   57  A    between atoms: _141  and  _142
REMARK   58  A    between atoms: _145  and  _147
REMARK   59  A    between atoms: _147  and  _148
REMARK   60  A    between atoms: _147  and  _150
REMARK   61  A    between atoms: _150  and  _151
REMARK   62  A    between atoms: _154  and  _156
REMARK   63  A    between atoms: _156  and  _157
REMARK   64  A    between atoms: _156  and  _159
REMARK   65  A    between atoms: _162  and  _164
REMARK   66  A    between atoms: _164  and  _165
REMARK   67  A    between atoms: _164  and  _167
REMARK   68  A    between atoms: _167  and  _168
REMARK   69  A    between atoms: _168  and  _169
REMARK   70  A    between atoms: _174  and  _176
REMARK   71  A    between atoms: _176  and  _177
REMARK   72  A    between atoms: _176  and  _179
REMARK   73  A    between atoms: _179  and  _180
REMARK   74  A    between atoms: _180  and  _181
REMARK   75  A    between atoms: _186  and  _188
REMARK   76  A    between atoms: _188  and  _189
REMARK   77  A    between atoms: _192  and  _194
REMARK   78  A    between atoms: _194  and  _195
REMARK   79  A    between atoms: _194  and  _197
REMARK   80  A    between atoms: _197  and  _198
REMARK   81  A    between atoms: _198  and  _199
REMARK   82  A    between atoms: _202  and  _204
REMARK   83  A    between atoms: _204  and  _205
REMARK   84  A    between atoms: _204  and  _207
REMARK   85  A    between atoms: _207  and  _208
REMARK   86  A    between atoms: _211  and  _213
REMARK   87  A    between atoms: _213  and  _214
REMARK   88  A    between atoms: _213  and  _216
REMARK   89  A    between atoms: _216  and  _217
REMARK   90  A    between atoms: _217  and  _218
REMARK   91  A    between atoms: _220  and  _222
REMARK   92  A    between atoms: _222  and  _223
REMARK   93  A    between atoms: _222  and  _225
REMARK   94  A    between atoms: _225  and  _226
REMARK   95  A    between atoms: _229  and  _231
REMARK   96  A    between atoms: _231  and  _232
REMARK   97  A    between atoms: _231  and  _234
REMARK   98  A    between atoms: _234  and  _235
REMARK   99  A    between atoms: _235  and  _236
REMARK  100  A    between atoms: _236  and  _237
REMARK  101  A    between atoms: _237  and  _238
REMARK  102  A    between atoms: _242  and  _244
REMARK  103  A    between atoms: _244  and  _245
REMARK  104  A    between atoms: _244  and  _247
REMARK  105  A    between atoms: _247  and  _248
REMARK  106  A    between atoms: _248  and  _249
REMARK  107  A    between atoms: _252  and  _254
REMARK  108  A    between atoms: _254  and  _255
REMARK  109  A    between atoms: _254  and  _257
REMARK  110  A    between atoms: _257  and  _258
REMARK  111  A    between atoms: _261  and  _263
REMARK  112  A    between atoms: _263  and  _264
REMARK  113  A    between atoms: _263  and  _266
REMARK  114  A    between atoms: _266  and  _267
REMARK  115  A    between atoms: _270  and  _272
REMARK  116  A    between atoms: _272  and  _273
REMARK  117  A    between atoms: _272  and  _275
REMARK  118  A    between atoms: _275  and  _276
REMARK  119  A    between atoms: _279  and  _281
REMARK  120  A    between atoms: _281  and  _282
REMARK  121  A    between atoms: _281  and  _284
REMARK                            x       y       z     vdW  Elec       q    Type
REMARK                         _______ _______ _______ _____ _____    ______ ____
ROOT
ATOM      1  O   HOH     1      23.078   1.615  -6.684  0.00  0.00    +0.000 OA
ENDROOT
TORSDOF 0
REMARK  Name = ../refined-set-2016/4b2l/4b2l_pocket.pdb
REMARK  121 active torsions:
REMARK  status: ('A' for Active; 'I' for Inactive)
REMARK    1  A    between atoms: _1  and  _3
REMARK    2  A    between atoms: _3  and  _4
REMARK    3  A    between atoms: _3  and  _6
REMARK    4  A    between atoms: _9  and  _11
REMARK    5  A    between atoms: _11  and  _12
REMARK    6  A    between atoms: _11  and  _14
REMARK    7  A    between atoms: _14  and  _15
REMARK    8  A    between atoms: _15  and  _16
REMARK    9  A    between atoms: _18  and  _20
REMARK   10  A    between atoms: _20  and  _21
REMARK   11  A    between atoms: _20  and  _23
REMARK   12  A    between atoms: _23  and  _24
REMARK   13  A    between atoms: _34  and  _36
REMARK   14  A    between atoms: _36  and  _37
REMARK   15  A    between atoms: _36  and  _39
REMARK   16  A    between atoms: _39  and  _40
REMARK   17  A    between atoms: _43  and  _45
REMARK   18  A    between atoms: _45  and  _46
REMARK   19  A    between atoms: _45  and  _48
REMARK   20  A    between atoms: _48  and  _49
REMARK   21  A    between atoms: _52  and  _54
REMARK   22  A    between atoms: _54  and  _55
REMARK   23  A    between atoms: _54  and  _57
REMARK   24  A    between atoms: _57  and  _58
REMARK   25  A    between atoms: _61  and  _63
REMARK   26  A    between atoms: _63  and  _64
REMARK   27  A    between atoms: _67  and  _69
REMARK   28  A    between atoms: _69  and  _70
REMARK   29  A    between atoms: _69  and  _72
REMARK   30  A    between atoms: _72  and  _73
REMARK   31  A    between atoms: _78  and  _79
REMARK   32  A    between atoms: _81  and  _83
REMARK   33  A    between atoms: _83  and  _84
REMARK   34  A    between atoms: _87  and  _89
REMARK   35  A    between atoms: _89  and  _90
REMARK   36  A    between atoms: _89  and  _92
REMARK   37  A    between atoms: _92  and  _93
REMARK   38  A    between atoms: _93  and  _94
REMARK   39  A    between atoms: _94  and  _95
REMARK   40  A    between atoms: _104  and  _106
REMARK   41  A    between atoms: _106  and  _107
REMARK   42  A    between atoms: _106  and  _109
REMARK   43  A    between atoms: _109  and  _110
REMARK   44  A    between atoms: _115  and  _117
REMARK   45  A    between atoms: _117  and  _118
REMARK   46  A    between atoms: _117  and  _120
REMARK   47  A    between atoms: _120  and  _121
REMARK   48  A    between atoms: _121  and  _122
REMARK   49  A    between atoms: _127  and  _129
REMARK   50  A    between atoms: _129  and  _130
REMARK   51  A    between atoms: _129  and  _132
REMARK   52  A    between atoms: _132  and  _133
REMARK   53  A    between atoms: _133  and  _134
REMARK   54  A    between atoms: _136  and  _138
REMARK   55  A    between atoms: _138  and  _139
REMARK   56  A    between atoms: _138  and  _141
REMARK   57  A    between atoms: _141  and  _142
REMARK   58  A    between atoms: _145  and  _147
REMARK   59  A    between atoms: _147  and  _148
REMARK   60  A    between atoms: _147  and  _150
REMARK   61  A    between atoms: _150  and  _151
REMARK   62  A    between atoms: _154  and  _156
REMARK   63  A    between atoms: _156  and  _157
REMARK   64  A    between atoms: _156  and  _159
REMARK   65  A    between atoms: _162  and  _164
REMARK   66  A    between atoms: _164  and  _165
REMARK   67  A    between atoms: _164  and  _167
REMARK   68  A    between atoms: _167  and  _168
REMARK   69  A    between atoms: _168  and  _169
REMARK   70  A    between atoms: _174  and  _176
REMARK   71  A    between atoms: _176  and  _177
REMARK   72  A    between atoms: _176  and  _179
REMARK   73  A    between atoms: _179  and  _180
REMARK   74  A    between atoms: _180  and  _181
REMARK   75  A    between atoms: _186  and  _188
REMARK   76  A    between atoms: _188  and  _189
REMARK   77  A    between atoms: _192  and  _194
REMARK   78  A    between atoms: _194  and  _195
REMARK   79  A    between atoms: _194  and  _197
REMARK   80  A    between atoms: _197  and  _198
REMARK   81  A    between atoms: _198  and  _199
REMARK   82  A    between atoms: _202  and  _204
REMARK   83  A    between atoms: _204  and  _205
REMARK   84  A    between atoms: _204  and  _207
REMARK   85  A    between atoms: _207  and  _208
REMARK   86  A    between atoms: _211  and  _213
REMARK   87  A    between atoms: _213  and  _214
REMARK   88  A    between atoms: _213  and  _216
REMARK   89  A    between atoms: _216  and  _217
REMARK   90  A    between atoms: _217  and  _218
REMARK   91  A    between atoms: _220  and  _222
REMARK   92  A    between atoms: _222  and  _223
REMARK   93  A    between atoms: _222  and  _225
REMARK   94  A    between atoms: _225  and  _226
REMARK   95  A    between atoms: _229  and  _231
REMARK   96  A    between atoms: _231  and  _232
REMARK   97  A    between atoms: _231  and  _234
REMARK   98  A    between atoms: _234  and  _235
REMARK   99  A    between atoms: _235  and  _236
REMARK  100  A    between atoms: _236  and  _237
REMARK  101  A    between atoms: _237  and  _238
REMARK  102  A    between atoms: _242  and  _244
REMARK  103  A    between atoms: _244  and  _245
REMARK  104  A    between atoms: _244  and  _247
REMARK  105  A    between atoms: _247  and  _248
REMARK  106  A    between atoms: _248  and  _249
REMARK  107  A    between atoms: _252  and  _254
REMARK  108  A    between atoms: _254  and  _255
REMARK  109  A    between atoms: _254  and  _257
REMARK  110  A    between atoms: _257  and  _258
REMARK  111  A    between atoms: _261  and  _263
REMARK  112  A    between atoms: _263  and  _264
REMARK  113  A    between atoms: _263  and  _266
REMARK  114  A    between atoms: _266  and  _267
REMARK  115  A    between atoms: _270  and  _272
REMARK  116  A    between atoms: _272  and  _273
REMARK  117  A    between atoms: _272  and  _275
REMARK  118  A    between atoms: _275  and  _276
REMARK  119  A    between atoms: _279  and  _281
REMARK  120  A    between atoms: _281  and  _282
REMARK  121  A    between atoms: _281  and  _284
REMARK                            x       y       z     vdW  Elec       q    Type
REMARK                         _______ _______ _______ _____ _____    ______ ____
ROOT
ATOM      1  O   HOH     1      21.315  -0.144  -7.559  0.00  0.00    +0.000 OA
ENDROOT
TORSDOF 0
REMARK  Name = ../refined-set-2016/4b2l/4b2l_pocket.pdb
REMARK  121 active torsions:
REMARK  status: ('A' for Active; 'I' for Inactive)
REMARK    1  A    between atoms: _1  and  _3
REMARK    2  A    between atoms: _3  and  _4
REMARK    3  A    between atoms: _3  and  _6
REMARK    4  A    between atoms: _9  and  _11
REMARK    5  A    between atoms: _11  and  _12
REMARK    6  A    between atoms: _11  and  _14
REMARK    7  A    between atoms: _14  and  _15
REMARK    8  A    between atoms: _15  and  _16
REMARK    9  A    between atoms: _18  and  _20
REMARK   10  A    between atoms: _20  and  _21
REMARK   11  A    between atoms: _20  and  _23
REMARK   12  A    between atoms: _23  and  _24
REMARK   13  A    between atoms: _34  and  _36
REMARK   14  A    between atoms: _36  and  _37
REMARK   15  A    between atoms: _36  and  _39
REMARK   16  A    between atoms: _39  and  _40
REMARK   17  A    between atoms: _43  and  _45
REMARK   18  A    between atoms: _45  and  _46
REMARK   19  A    between atoms: _45  and  _48
REMARK   20  A    between atoms: _48  and  _49
REMARK   21  A    between atoms: _52  and  _54
REMARK   22  A    between atoms: _54  and  _55
REMARK   23  A    between atoms: _54  and  _57
REMARK   24  A    between atoms: _57  and  _58
REMARK   25  A    between atoms: _61  and  _63
REMARK   26  A    between atoms: _63  and  _64
REMARK   27  A    between atoms: _67  and  _69
REMARK   28  A    between atoms: _69  and  _70
REMARK   29  A    between atoms: _69  and  _72
REMARK   30  A    between atoms: _72  and  _73
REMARK   31  A    between atoms: _78  and  _79
REMARK   32  A    between atoms: _81  and  _83
REMARK   33  A    between atoms: _83  and  _84
REMARK   34  A    between atoms: _87  and  _89
REMARK   35  A    between atoms: _89  and  _90
REMARK   36  A    between atoms: _89  and  _92
REMARK   37  A    between atoms: _92  and  _93
REMARK   38  A    between atoms: _93  and  _94
REMARK   39  A    between atoms: _94  and  _95
REMARK   40  A    between atoms: _104  and  _106
REMARK   41  A    between atoms: _106  and  _107
REMARK   42  A    between atoms: _106  and  _109
REMARK   43  A    between atoms: _109  and  _110
REMARK   44  A    between atoms: _115  and  _117
REMARK   45  A    between atoms: _117  and  _118
REMARK   46  A    between atoms: _117  and  _120
REMARK   47  A    between atoms: _120  and  _121
REMARK   48  A    between atoms: _121  and  _122
REMARK   49  A    between atoms: _127  and  _129
REMARK   50  A    between atoms: _129  and  _130
REMARK   51  A    between atoms: _129  and  _132
REMARK   52  A    between atoms: _132  and  _133
REMARK   53  A    between atoms: _133  and  _134
REMARK   54  A    between atoms: _136  and  _138
REMARK   55  A    between atoms: _138  and  _139
REMARK   56  A    between atoms: _138  and  _141
REMARK   57  A    between atoms: _141  and  _142
REMARK   58  A    between atoms: _145  and  _147
REMARK   59  A    between atoms: _147  and  _148
REMARK   60  A    between atoms: _147  and  _150
REMARK   61  A    between atoms: _150  and  _151
REMARK   62  A    between atoms: _154  and  _156
REMARK   63  A    between atoms: _156  and  _157
REMARK   64  A    between atoms: _156  and  _159
REMARK   65  A    between atoms: _162  and  _164
REMARK   66  A    between atoms: _164  and  _165
REMARK   67  A    between atoms: _164  and  _167
REMARK   68  A    between atoms: _167  and  _168
REMARK   69  A    between atoms: _168  and  _169
REMARK   70  A    between atoms: _174  and  _176
REMARK   71  A    between atoms: _176  and  _177
REMARK   72  A    between atoms: _176  and  _179
REMARK   73  A    between atoms: _179  and  _180
REMARK   74  A    between atoms: _180  and  _181
REMARK   75  A    between atoms: _186  and  _188
REMARK   76  A    between atoms: _188  and  _189
REMARK   77  A    between atoms: _192  and  _194
REMARK   78  A    between atoms: _194  and  _195
REMARK   79  A    between atoms: _194  and  _197
REMARK   80  A    between atoms: _197  and  _198
REMARK   81  A    between atoms: _198  and  _199
REMARK   82  A    between atoms: _202  and  _204
REMARK   83  A    between atoms: _204  and  _205
REMARK   84  A    between atoms: _204  and  _207
REMARK   85  A    between atoms: _207  and  _208
REMARK   86  A    between atoms: _211  and  _213
REMARK   87  A    between atoms: _213  and  _214
REMARK   88  A    between atoms: _213  and  _216
REMARK   89  A    between atoms: _216  and  _217
REMARK   90  A    between atoms: _217  and  _218
REMARK   91  A    between atoms: _220  and  _222
REMARK   92  A    between atoms: _222  and  _223
REMARK   93  A    between atoms: _222  and  _225
REMARK   94  A    between atoms: _225  and  _226
REMARK   95  A    between atoms: _229  and  _231
REMARK   96  A    between atoms: _231  and  _232
REMARK   97  A    between atoms: _231  and  _234
REMARK   98  A    between atoms: _234  and  _235
REMARK   99  A    between atoms: _235  and  _236
REMARK  100  A    between atoms: _236  and  _237
REMARK  101  A    between atoms: _237  and  _238
REMARK  102  A    between atoms: _242  and  _244
REMARK  103  A    between atoms: _244  and  _245
REMARK  104  A    between atoms: _244  and  _247
REMARK  105  A    between atoms: _247  and  _248
REMARK  106  A    between atoms: _248  and  _249
REMARK  107  A    between atoms: _252  and  _254
REMARK  108  A    between atoms: _254  and  _255
REMARK  109  A    between atoms: _254  and  _257
REMARK  110  A    between atoms: _257  and  _258
REMARK  111  A    between atoms: _261  and  _263
REMARK  112  A    between atoms: _263  and  _264
REMARK  113  A    between atoms: _263  and  _266
REMARK  114  A    between atoms: _266  and  _267
REMARK  115  A    between atoms: _270  and  _272
REMARK  116  A    between atoms: _272  and  _273
REMARK  117  A    between atoms: _272  and  _275
REMARK  118  A    between atoms: _275  and  _276
REMARK  119  A    between atoms: _279  and  _281
REMARK  120  A    between atoms: _281  and  _282
REMARK  121  A    between atoms: _281  and  _284
REMARK                            x       y       z     vdW  Elec       q    Type
REMARK                         _______ _______ _______ _____ _____    ______ ____
ROOT
ATOM      1  O   HOH     1      23.621   0.370  -3.354  0.00  0.00    +0.000 OA
ENDROOT
TORSDOF 0
REMARK  Name = ../refined-set-2016/4b2l/4b2l_pocket.pdb
REMARK  121 active torsions:
REMARK  status: ('A' for Active; 'I' for Inactive)
REMARK    1  A    between atoms: _1  and  _3
REMARK    2  A    between atoms: _3  and  _4
REMARK    3  A    between atoms: _3  and  _6
REMARK    4  A    between atoms: _9  and  _11
REMARK    5  A    between atoms: _11  and  _12
REMARK    6  A    between atoms: _11  and  _14
REMARK    7  A    between atoms: _14  and  _15
REMARK    8  A    between atoms: _15  and  _16
REMARK    9  A    between atoms: _18  and  _20
REMARK   10  A    between atoms: _20  and  _21
REMARK   11  A    between atoms: _20  and  _23
REMARK   12  A    between atoms: _23  and  _24
REMARK   13  A    between atoms: _34  and  _36
REMARK   14  A    between atoms: _36  and  _37
REMARK   15  A    between atoms: _36  and  _39
REMARK   16  A    between atoms: _39  and  _40
REMARK   17  A    between atoms: _43  and  _45
REMARK   18  A    between atoms: _45  and  _46
REMARK   19  A    between atoms: _45  and  _48
REMARK   20  A    between atoms: _48  and  _49
REMARK   21  A    between atoms: _52  and  _54
REMARK   22  A    between atoms: _54  and  _55
REMARK   23  A    between atoms: _54  and  _57
REMARK   24  A    between atoms: _57  and  _58
REMARK   25  A    between atoms: _61  and  _63
REMARK   26  A    between atoms: _63  and  _64
REMARK   27  A    between atoms: _67  and  _69
REMARK   28  A    between atoms: _69  and  _70
REMARK   29  A    between atoms: _69  and  _72
REMARK   30  A    between atoms: _72  and  _73
REMARK   31  A    between atoms: _78  and  _79
REMARK   32  A    between atoms: _81  and  _83
REMARK   33  A    between atoms: _83  and  _84
REMARK   34  A    between atoms: _87  and  _89
REMARK   35  A    between atoms: _89  and  _90
REMARK   36  A    between atoms: _89  and  _92
REMARK   37  A    between atoms: _92  and  _93
REMARK   38  A    between atoms: _93  and  _94
REMARK   39  A    between atoms: _94  and  _95
REMARK   40  A    between atoms: _104  and  _106
REMARK   41  A    between atoms: _106  and  _107
REMARK   42  A    between atoms: _106  and  _109
REMARK   43  A    between atoms: _109  and  _110
REMARK   44  A    between atoms: _115  and  _117
REMARK   45  A    between atoms: _117  and  _118
REMARK   46  A    between atoms: _117  and  _120
REMARK   47  A    between atoms: _120  and  _121
REMARK   48  A    between atoms: _121  and  _122
REMARK   49  A    between atoms: _127  and  _129
REMARK   50  A    between atoms: _129  and  _130
REMARK   51  A    between atoms: _129  and  _132
REMARK   52  A    between atoms: _132  and  _133
REMARK   53  A    between atoms: _133  and  _134
REMARK   54  A    between atoms: _136  and  _138
REMARK   55  A    between atoms: _138  and  _139
REMARK   56  A    between atoms: _138  and  _141
REMARK   57  A    between atoms: _141  and  _142
REMARK   58  A    between atoms: _145  and  _147
REMARK   59  A    between atoms: _147  and  _148
REMARK   60  A    between atoms: _147  and  _150
REMARK   61  A    between atoms: _150  and  _151
REMARK   62  A    between atoms: _154  and  _156
REMARK   63  A    between atoms: _156  and  _157
REMARK   64  A    between atoms: _156  and  _159
REMARK   65  A    between atoms: _162  and  _164
REMARK   66  A    between atoms: _164  and  _165
REMARK   67  A    between atoms: _164  and  _167
REMARK   68  A    between atoms: _167  and  _168
REMARK   69  A    between atoms: _168  and  _169
REMARK   70  A    between atoms: _174  and  _176
REMARK   71  A    between atoms: _176  and  _177
REMARK   72  A    between atoms: _176  and  _179
REMARK   73  A    between atoms: _179  and  _180
REMARK   74  A    between atoms: _180  and  _181
REMARK   75  A    between atoms: _186  and  _188
REMARK   76  A    between atoms: _188  and  _189
REMARK   77  A    between atoms: _192  and  _194
REMARK   78  A    between atoms: _194  and  _195
REMARK   79  A    between atoms: _194  and  _197
REMARK   80  A    between atoms: _197  and  _198
REMARK   81  A    between atoms: _198  and  _199
REMARK   82  A    between atoms: _202  and  _204
REMARK   83  A    between atoms: _204  and  _205
REMARK   84  A    between atoms: _204  and  _207
REMARK   85  A    between atoms: _207  and  _208
REMARK   86  A    between atoms: _211  and  _213
REMARK   87  A    between atoms: _213  and  _214
REMARK   88  A    between atoms: _213  and  _216
REMARK   89  A    between atoms: _216  and  _217
REMARK   90  A    between atoms: _217  and  _218
REMARK   91  A    between atoms: _220  and  _222
REMARK   92  A    between atoms: _222  and  _223
REMARK   93  A    between atoms: _222  and  _225
REMARK   94  A    between atoms: _225  and  _226
REMARK   95  A    between atoms: _229  and  _231
REMARK   96  A    between atoms: _231  and  _232
REMARK   97  A    between atoms: _231  and  _234
REMARK   98  A    between atoms: _234  and  _235
REMARK   99  A    between atoms: _235  and  _236
REMARK  100  A    between atoms: _236  and  _237
REMARK  101  A    between atoms: _237  and  _238
REMARK  102  A    between atoms: _242  and  _244
REMARK  103  A    between atoms: _244  and  _245
REMARK  104  A    between atoms: _244  and  _247
REMARK  105  A    between atoms: _247  and  _248
REMARK  106  A    between atoms: _248  and  _249
REMARK  107  A    between atoms: _252  and  _254
REMARK  108  A    between atoms: _254  and  _255
REMARK  109  A    between atoms: _254  and  _257
REMARK  110  A    between atoms: _257  and  _258
REMARK  111  A    between atoms: _261  and  _263
REMARK  112  A    between atoms: _263  and  _264
REMARK  113  A    between atoms: _263  and  _266
REMARK  114  A    between atoms: _266  and  _267
REMARK  115  A    between atoms: _270  and  _272
REMARK  116  A    between atoms: _272  and  _273
REMARK  117  A    between atoms: _272  and  _275
REMARK  118  A    between atoms: _275  and  _276
REMARK  119  A    between atoms: _279  and  _281
REMARK  120  A    between atoms: _281  and  _282
REMARK  121  A    between atoms: _281  and  _284
REMARK                            x       y       z     vdW  Elec       q    Type
REMARK                         _______ _______ _______ _____ _____    ______ ____
ROOT
ATOM      1  O   HOH     1      23.920   2.991  -3.050  0.00  0.00    +0.000 OA
ENDROOT
TORSDOF 0
REMARK  Name = ../refined-set-2016/4b2l/4b2l_pocket.pdb
REMARK  121 active torsions:
REMARK  status: ('A' for Active; 'I' for Inactive)
REMARK    1  A    between atoms: _1  and  _3
REMARK    2  A    between atoms: _3  and  _4
REMARK    3  A    between atoms: _3  and  _6
REMARK    4  A    between atoms: _9  and  _11
REMARK    5  A    between atoms: _11  and  _12
REMARK    6  A    between atoms: _11  and  _14
REMARK    7  A    between atoms: _14  and  _15
REMARK    8  A    between atoms: _15  and  _16
REMARK    9  A    between atoms: _18  and  _20
REMARK   10  A    between atoms: _20  and  _21
REMARK   11  A    between atoms: _20  and  _23
REMARK   12  A    between atoms: _23  and  _24
REMARK   13  A    between atoms: _34  and  _36
REMARK   14  A    between atoms: _36  and  _37
REMARK   15  A    between atoms: _36  and  _39
REMARK   16  A    between atoms: _39  and  _40
REMARK   17  A    between atoms: _43  and  _45
REMARK   18  A    between atoms: _45  and  _46
REMARK   19  A    between atoms: _45  and  _48
REMARK   20  A    between atoms: _48  and  _49
REMARK   21  A    between atoms: _52  and  _54
REMARK   22  A    between atoms: _54  and  _55
REMARK   23  A    between atoms: _54  and  _57
REMARK   24  A    between atoms: _57  and  _58
REMARK   25  A    between atoms: _61  and  _63
REMARK   26  A    between atoms: _63  and  _64
REMARK   27  A    between atoms: _67  and  _69
REMARK   28  A    between atoms: _69  and  _70
REMARK   29  A    between atoms: _69  and  _72
REMARK   30  A    between atoms: _72  and  _73
REMARK   31  A    between atoms: _78  and  _79
REMARK   32  A    between atoms: _81  and  _83
REMARK   33  A    between atoms: _83  and  _84
REMARK   34  A    between atoms: _87  and  _89
REMARK   35  A    between atoms: _89  and  _90
REMARK   36  A    between atoms: _89  and  _92
REMARK   37  A    between atoms: _92  and  _93
REMARK   38  A    between atoms: _93  and  _94
REMARK   39  A    between atoms: _94  and  _95
REMARK   40  A    between atoms: _104  and  _106
REMARK   41  A    between atoms: _106  and  _107
REMARK   42  A    between atoms: _106  and  _109
REMARK   43  A    between atoms: _109  and  _110
REMARK   44  A    between atoms: _115  and  _117
REMARK   45  A    between atoms: _117  and  _118
REMARK   46  A    between atoms: _117  and  _120
REMARK   47  A    between atoms: _120  and  _121
REMARK   48  A    between atoms: _121  and  _122
REMARK   49  A    between atoms: _127  and  _129
REMARK   50  A    between atoms: _129  and  _130
REMARK   51  A    between atoms: _129  and  _132
REMARK   52  A    between atoms: _132  and  _133
REMARK   53  A    between atoms: _133  and  _134
REMARK   54  A    between atoms: _136  and  _138
REMARK   55  A    between atoms: _138  and  _139
REMARK   56  A    between atoms: _138  and  _141
REMARK   57  A    between atoms: _141  and  _142
REMARK   58  A    between atoms: _145  and  _147
REMARK   59  A    between atoms: _147  and  _148
REMARK   60  A    between atoms: _147  and  _150
REMARK   61  A    between atoms: _150  and  _151
REMARK   62  A    between atoms: _154  and  _156
REMARK   63  A    between atoms: _156  and  _157
REMARK   64  A    between atoms: _156  and  _159
REMARK   65  A    between atoms: _162  and  _164
REMARK   66  A    between atoms: _164  and  _165
REMARK   67  A    between atoms: _164  and  _167
REMARK   68  A    between atoms: _167  and  _168
REMARK   69  A    between atoms: _168  and  _169
REMARK   70  A    between atoms: _174  and  _176
REMARK   71  A    between atoms: _176  and  _177
REMARK   72  A    between atoms: _176  and  _179
REMARK   73  A    between atoms: _179  and  _180
REMARK   74  A    between atoms: _180  and  _181
REMARK   75  A    between atoms: _186  and  _188
REMARK   76  A    between atoms: _188  and  _189
REMARK   77  A    between atoms: _192  and  _194
REMARK   78  A    between atoms: _194  and  _195
REMARK   79  A    between atoms: _194  and  _197
REMARK   80  A    between atoms: _197  and  _198
REMARK   81  A    between atoms: _198  and  _199
REMARK   82  A    between atoms: _202  and  _204
REMARK   83  A    between atoms: _204  and  _205
REMARK   84  A    between atoms: _204  and  _207
REMARK   85  A    between atoms: _207  and  _208
REMARK   86  A    between atoms: _211  and  _213
REMARK   87  A    between atoms: _213  and  _214
REMARK   88  A    between atoms: _213  and  _216
REMARK   89  A    between atoms: _216  and  _217
REMARK   90  A    between atoms: _217  and  _218
REMARK   91  A    between atoms: _220  and  _222
REMARK   92  A    between atoms: _222  and  _223
REMARK   93  A    between atoms: _222  and  _225
REMARK   94  A    between atoms: _225  and  _226
REMARK   95  A    between atoms: _229  and  _231
REMARK   96  A    between atoms: _231  and  _232
REMARK   97  A    between atoms: _231  and  _234
REMARK   98  A    between atoms: _234  and  _235
REMARK   99  A    between atoms: _235  and  _236
REMARK  100  A    between atoms: _236  and  _237
REMARK  101  A    between atoms: _237  and  _238
REMARK  102  A    between atoms: _242  and  _244
REMARK  103  A    between atoms: _244  and  _245
REMARK  104  A    between atoms: _244  and  _247
REMARK  105  A    between atoms: _247  and  _248
REMARK  106  A    between atoms: _248  and  _249
REMARK  107  A    between atoms: _252  and  _254
REMARK  108  A    between atoms: _254  and  _255
REMARK  109  A    between atoms: _254  and  _257
REMARK  110  A    between atoms: _257  and  _258
REMARK  111  A    between atoms: _261  and  _263
REMARK  112  A    between atoms: _263  and  _264
REMARK  113  A    between atoms: _263  and  _266
REMARK  114  A    between atoms: _266  and  _267
REMARK  115  A    between atoms: _270  and  _272
REMARK  116  A    between atoms: _272  and  _273
REMARK  117  A    between atoms: _272  and  _275
REMARK  118  A    between atoms: _275  and  _276
REMARK  119  A    between atoms: _279  and  _281
REMARK  120  A    between atoms: _281  and  _282
REMARK  121  A    between atoms: _281  and  _284
REMARK                            x       y       z     vdW  Elec       q    Type
REMARK                         _______ _______ _______ _____ _____    ______ ____
ROOT
ATOM      1  O   HOH     1      23.700  12.465   1.185  0.00  0.00    +0.000 OA
ENDROOT
TORSDOF 0
REMARK  Name = ../refined-set-2016/4b2l/4b2l_pocket.pdb
REMARK  121 active torsions:
REMARK  status: ('A' for Active; 'I' for Inactive)
REMARK    1  A    between atoms: _1  and  _3
REMARK    2  A    between atoms: _3  and  _4
REMARK    3  A    between atoms: _3  and  _6
REMARK    4  A    between atoms: _9  and  _11
REMARK    5  A    between atoms: _11  and  _12
REMARK    6  A    between atoms: _11  and  _14
REMARK    7  A    between atoms: _14  and  _15
REMARK    8  A    between atoms: _15  and  _16
REMARK    9  A    between atoms: _18  and  _20
REMARK   10  A    between atoms: _20  and  _21
REMARK   11  A    between atoms: _20  and  _23
REMARK   12  A    between atoms: _23  and  _24
REMARK   13  A    between atoms: _34  and  _36
REMARK   14  A    between atoms: _36  and  _37
REMARK   15  A    between atoms: _36  and  _39
REMARK   16  A    between atoms: _39  and  _40
REMARK   17  A    between atoms: _43  and  _45
REMARK   18  A    between atoms: _45  and  _46
REMARK   19  A    between atoms: _45  and  _48
REMARK   20  A    between atoms: _48  and  _49
REMARK   21  A    between atoms: _52  and  _54
REMARK   22  A    between atoms: _54  and  _55
REMARK   23  A    between atoms: _54  and  _57
REMARK   24  A    between atoms: _57  and  _58
REMARK   25  A    between atoms: _61  and  _63
REMARK   26  A    between atoms: _63  and  _64
REMARK   27  A    between atoms: _67  and  _69
REMARK   28  A    between atoms: _69  and  _70
REMARK   29  A    between atoms: _69  and  _72
REMARK   30  A    between atoms: _72  and  _73
REMARK   31  A    between atoms: _78  and  _79
REMARK   32  A    between atoms: _81  and  _83
REMARK   33  A    between atoms: _83  and  _84
REMARK   34  A    between atoms: _87  and  _89
REMARK   35  A    between atoms: _89  and  _90
REMARK   36  A    between atoms: _89  and  _92
REMARK   37  A    between atoms: _92  and  _93
REMARK   38  A    between atoms: _93  and  _94
REMARK   39  A    between atoms: _94  and  _95
REMARK   40  A    between atoms: _104  and  _106
REMARK   41  A    between atoms: _106  and  _107
REMARK   42  A    between atoms: _106  and  _109
REMARK   43  A    between atoms: _109  and  _110
REMARK   44  A    between atoms: _115  and  _117
REMARK   45  A    between atoms: _117  and  _118
REMARK   46  A    between atoms: _117  and  _120
REMARK   47  A    between atoms: _120  and  _121
REMARK   48  A    between atoms: _121  and  _122
REMARK   49  A    between atoms: _127  and  _129
REMARK   50  A    between atoms: _129  and  _130
REMARK   51  A    between atoms: _129  and  _132
REMARK   52  A    between atoms: _132  and  _133
REMARK   53  A    between atoms: _133  and  _134
REMARK   54  A    between atoms: _136  and  _138
REMARK   55  A    between atoms: _138  and  _139
REMARK   56  A    between atoms: _138  and  _141
REMARK   57  A    between atoms: _141  and  _142
REMARK   58  A    between atoms: _145  and  _147
REMARK   59  A    between atoms: _147  and  _148
REMARK   60  A    between atoms: _147  and  _150
REMARK   61  A    between atoms: _150  and  _151
REMARK   62  A    between atoms: _154  and  _156
REMARK   63  A    between atoms: _156  and  _157
REMARK   64  A    between atoms: _156  and  _159
REMARK   65  A    between atoms: _162  and  _164
REMARK   66  A    between atoms: _164  and  _165
REMARK   67  A    between atoms: _164  and  _167
REMARK   68  A    between atoms: _167  and  _168
REMARK   69  A    between atoms: _168  and  _169
REMARK   70  A    between atoms: _174  and  _176
REMARK   71  A    between atoms: _176  and  _177
REMARK   72  A    between atoms: _176  and  _179
REMARK   73  A    between atoms: _179  and  _180
REMARK   74  A    between atoms: _180  and  _181
REMARK   75  A    between atoms: _186  and  _188
REMARK   76  A    between atoms: _188  and  _189
REMARK   77  A    between atoms: _192  and  _194
REMARK   78  A    between atoms: _194  and  _195
REMARK   79  A    between atoms: _194  and  _197
REMARK   80  A    between atoms: _197  and  _198
REMARK   81  A    between atoms: _198  and  _199
REMARK   82  A    between atoms: _202  and  _204
REMARK   83  A    between atoms: _204  and  _205
REMARK   84  A    between atoms: _204  and  _207
REMARK   85  A    between atoms: _207  and  _208
REMARK   86  A    between atoms: _211  and  _213
REMARK   87  A    between atoms: _213  and  _214
REMARK   88  A    between atoms: _213  and  _216
REMARK   89  A    between atoms: _216  and  _217
REMARK   90  A    between atoms: _217  and  _218
REMARK   91  A    between atoms: _220  and  _222
REMARK   92  A    between atoms: _222  and  _223
REMARK   93  A    between atoms: _222  and  _225
REMARK   94  A    between atoms: _225  and  _226
REMARK   95  A    between atoms: _229  and  _231
REMARK   96  A    between atoms: _231  and  _232
REMARK   97  A    between atoms: _231  and  _234
REMARK   98  A    between atoms: _234  and  _235
REMARK   99  A    between atoms: _235  and  _236
REMARK  100  A    between atoms: _236  and  _237
REMARK  101  A    between atoms: _237  and  _238
REMARK  102  A    between atoms: _242  and  _244
REMARK  103  A    between atoms: _244  and  _245
REMARK  104  A    between atoms: _244  and  _247
REMARK  105  A    between atoms: _247  and  _248
REMARK  106  A    between atoms: _248  and  _249
REMARK  107  A    between atoms: _252  and  _254
REMARK  108  A    between atoms: _254  and  _255
REMARK  109  A    between atoms: _254  and  _257
REMARK  110  A    between atoms: _257  and  _258
REMARK  111  A    between atoms: _261  and  _263
REMARK  112  A    between atoms: _263  and  _264
REMARK  113  A    between atoms: _263  and  _266
REMARK  114  A    between atoms: _266  and  _267
REMARK  115  A    between atoms: _270  and  _272
REMARK  116  A    between atoms: _272  and  _273
REMARK  117  A    between atoms: _272  and  _275
REMARK  118  A    between atoms: _275  and  _276
REMARK  119  A    between atoms: _279  and  _281
REMARK  120  A    between atoms: _281  and  _282
REMARK  121  A    between atoms: _281  and  _284
REMARK                            x       y       z     vdW  Elec       q    Type
REMARK                         _______ _______ _______ _____ _____    ______ ____
ROOT
ATOM      1  O   HOH     1      25.341   9.865   2.020  0.00  0.00    +0.000 OA
ENDROOT
TORSDOF 0
REMARK  Name = ../refined-set-2016/4b2l/4b2l_pocket.pdb
REMARK  121 active torsions:
REMARK  status: ('A' for Active; 'I' for Inactive)
REMARK    1  A    between atoms: _1  and  _3
REMARK    2  A    between atoms: _3  and  _4
REMARK    3  A    between atoms: _3  and  _6
REMARK    4  A    between atoms: _9  and  _11
REMARK    5  A    between atoms: _11  and  _12
REMARK    6  A    between atoms: _11  and  _14
REMARK    7  A    between atoms: _14  and  _15
REMARK    8  A    between atoms: _15  and  _16
REMARK    9  A    between atoms: _18  and  _20
REMARK   10  A    between atoms: _20  and  _21
REMARK   11  A    between atoms: _20  and  _23
REMARK   12  A    between atoms: _23  and  _24
REMARK   13  A    between atoms: _34  and  _36
REMARK   14  A    between atoms: _36  and  _37
REMARK   15  A    between atoms: _36  and  _39
REMARK   16  A    between atoms: _39  and  _40
REMARK   17  A    between atoms: _43  and  _45
REMARK   18  A    between atoms: _45  and  _46
REMARK   19  A    between atoms: _45  and  _48
REMARK   20  A    between atoms: _48  and  _49
REMARK   21  A    between atoms: _52  and  _54
REMARK   22  A    between atoms: _54  and  _55
REMARK   23  A    between atoms: _54  and  _57
REMARK   24  A    between atoms: _57  and  _58
REMARK   25  A    between atoms: _61  and  _63
REMARK   26  A    between atoms: _63  and  _64
REMARK   27  A    between atoms: _67  and  _69
REMARK   28  A    between atoms: _69  and  _70
REMARK   29  A    between atoms: _69  and  _72
REMARK   30  A    between atoms: _72  and  _73
REMARK   31  A    between atoms: _78  and  _79
REMARK   32  A    between atoms: _81  and  _83
REMARK   33  A    between atoms: _83  and  _84
REMARK   34  A    between atoms: _87  and  _89
REMARK   35  A    between atoms: _89  and  _90
REMARK   36  A    between atoms: _89  and  _92
REMARK   37  A    between atoms: _92  and  _93
REMARK   38  A    between atoms: _93  and  _94
REMARK   39  A    between atoms: _94  and  _95
REMARK   40  A    between atoms: _104  and  _106
REMARK   41  A    between atoms: _106  and  _107
REMARK   42  A    between atoms: _106  and  _109
REMARK   43  A    between atoms: _109  and  _110
REMARK   44  A    between atoms: _115  and  _117
REMARK   45  A    between atoms: _117  and  _118
REMARK   46  A    between atoms: _117  and  _120
REMARK   47  A    between atoms: _120  and  _121
REMARK   48  A    between atoms: _121  and  _122
REMARK   49  A    between atoms: _127  and  _129
REMARK   50  A    between atoms: _129  and  _130
REMARK   51  A    between atoms: _129  and  _132
REMARK   52  A    between atoms: _132  and  _133
REMARK   53  A    between atoms: _133  and  _134
REMARK   54  A    between atoms: _136  and  _138
REMARK   55  A    between atoms: _138  and  _139
REMARK   56  A    between atoms: _138  and  _141
REMARK   57  A    between atoms: _141  and  _142
REMARK   58  A    between atoms: _145  and  _147
REMARK   59  A    between atoms: _147  and  _148
REMARK   60  A    between atoms: _147  and  _150
REMARK   61  A    between atoms: _150  and  _151
REMARK   62  A    between atoms: _154  and  _156
REMARK   63  A    between atoms: _156  and  _157
REMARK   64  A    between atoms: _156  and  _159
REMARK   65  A    between atoms: _162  and  _164
REMARK   66  A    between atoms: _164  and  _165
REMARK   67  A    between atoms: _164  and  _167
REMARK   68  A    between atoms: _167  and  _168
REMARK   69  A    between atoms: _168  and  _169
REMARK   70  A    between atoms: _174  and  _176
REMARK   71  A    between atoms: _176  and  _177
REMARK   72  A    between atoms: _176  and  _179
REMARK   73  A    between atoms: _179  and  _180
REMARK   74  A    between atoms: _180  and  _181
REMARK   75  A    between atoms: _186  and  _188
REMARK   76  A    between atoms: _188  and  _189
REMARK   77  A    between atoms: _192  and  _194
REMARK   78  A    between atoms: _194  and  _195
REMARK   79  A    between atoms: _194  and  _197
REMARK   80  A    between atoms: _197  and  _198
REMARK   81  A    between atoms: _198  and  _199
REMARK   82  A    between atoms: _202  and  _204
REMARK   83  A    between atoms: _204  and  _205
REMARK   84  A    between atoms: _204  and  _207
REMARK   85  A    between atoms: _207  and  _208
REMARK   86  A    between atoms: _211  and  _213
REMARK   87  A    between atoms: _213  and  _214
REMARK   88  A    between atoms: _213  and  _216
REMARK   89  A    between atoms: _216  and  _217
REMARK   90  A    between atoms: _217  and  _218
REMARK   91  A    between atoms: _220  and  _222
REMARK   92  A    between atoms: _222  and  _223
REMARK   93  A    between atoms: _222  and  _225
REMARK   94  A    between atoms: _225  and  _226
REMARK   95  A    between atoms: _229  and  _231
REMARK   96  A    between atoms: _231  and  _232
REMARK   97  A    between atoms: _231  and  _234
REMARK   98  A    between atoms: _234  and  _235
REMARK   99  A    between atoms: _235  and  _236
REMARK  100  A    between atoms: _236  and  _237
REMARK  101  A    between atoms: _237  and  _238
REMARK  102  A    between atoms: _242  and  _244
REMARK  103  A    between atoms: _244  and  _245
REMARK  104  A    between atoms: _244  and  _247
REMARK  105  A    between atoms: _247  and  _248
REMARK  106  A    between atoms: _248  and  _249
REMARK  107  A    between atoms: _252  and  _254
REMARK  108  A    between atoms: _254  and  _255
REMARK  109  A    between atoms: _254  and  _257
REMARK  110  A    between atoms: _257  and  _258
REMARK  111  A    between atoms: _261  and  _263
REMARK  112  A    between atoms: _263  and  _264
REMARK  113  A    between atoms: _263  and  _266
REMARK  114  A    between atoms: _266  and  _267
REMARK  115  A    between atoms: _270  and  _272
REMARK  116  A    between atoms: _272  and  _273
REMARK  117  A    between atoms: _272  and  _275
REMARK  118  A    between atoms: _275  and  _276
REMARK  119  A    between atoms: _279  and  _281
REMARK  120  A    between atoms: _281  and  _282
REMARK  121  A    between atoms: _281  and  _284
REMARK                            x       y       z     vdW  Elec       q    Type
REMARK                         _______ _______ _______ _____ _____    ______ ____
ROOT
ATOM      1  O   HOH     1      15.950  15.682  -9.206  0.00  0.00    +0.000 OA
ENDROOT
TORSDOF 0
REMARK  Name = ../refined-set-2016/4b2l/4b2l_pocket.pdb
REMARK  121 active torsions:
REMARK  status: ('A' for Active; 'I' for Inactive)
REMARK    1  A    between atoms: _1  and  _3
REMARK    2  A    between atoms: _3  and  _4
REMARK    3  A    between atoms: _3  and  _6
REMARK    4  A    between atoms: _9  and  _11
REMARK    5  A    between atoms: _11  and  _12
REMARK    6  A    between atoms: _11  and  _14
REMARK    7  A    between atoms: _14  and  _15
REMARK    8  A    between atoms: _15  and  _16
REMARK    9  A    between atoms: _18  and  _20
REMARK   10  A    between atoms: _20  and  _21
REMARK   11  A    between atoms: _20  and  _23
REMARK   12  A    between atoms: _23  and  _24
REMARK   13  A    between atoms: _34  and  _36
REMARK   14  A    between atoms: _36  and  _37
REMARK   15  A    between atoms: _36  and  _39
REMARK   16  A    between atoms: _39  and  _40
REMARK   17  A    between atoms: _43  and  _45
REMARK   18  A    between atoms: _45  and  _46
REMARK   19  A    between atoms: _45  and  _48
REMARK   20  A    between atoms: _48  and  _49
REMARK   21  A    between atoms: _52  and  _54
REMARK   22  A    between atoms: _54  and  _55
REMARK   23  A    between atoms: _54  and  _57
REMARK   24  A    between atoms: _57  and  _58
REMARK   25  A    between atoms: _61  and  _63
REMARK   26  A    between atoms: _63  and  _64
REMARK   27  A    between atoms: _67  and  _69
REMARK   28  A    between atoms: _69  and  _70
REMARK   29  A    between atoms: _69  and  _72
REMARK   30  A    between atoms: _72  and  _73
REMARK   31  A    between atoms: _78  and  _79
REMARK   32  A    between atoms: _81  and  _83
REMARK   33  A    between atoms: _83  and  _84
REMARK   34  A    between atoms: _87  and  _89
REMARK   35  A    between atoms: _89  and  _90
REMARK   36  A    between atoms: _89  and  _92
REMARK   37  A    between atoms: _92  and  _93
REMARK   38  A    between atoms: _93  and  _94
REMARK   39  A    between atoms: _94  and  _95
REMARK   40  A    between atoms: _104  and  _106
REMARK   41  A    between atoms: _106  and  _107
REMARK   42  A    between atoms: _106  and  _109
REMARK   43  A    between atoms: _109  and  _110
REMARK   44  A    between atoms: _115  and  _117
REMARK   45  A    between atoms: _117  and  _118
REMARK   46  A    between atoms: _117  and  _120
REMARK   47  A    between atoms: _120  and  _121
REMARK   48  A    between atoms: _121  and  _122
REMARK   49  A    between atoms: _127  and  _129
REMARK   50  A    between atoms: _129  and  _130
REMARK   51  A    between atoms: _129  and  _132
REMARK   52  A    between atoms: _132  and  _133
REMARK   53  A    between atoms: _133  and  _134
REMARK   54  A    between atoms: _136  and  _138
REMARK   55  A    between atoms: _138  and  _139
REMARK   56  A    between atoms: _138  and  _141
REMARK   57  A    between atoms: _141  and  _142
REMARK   58  A    between atoms: _145  and  _147
REMARK   59  A    between atoms: _147  and  _148
REMARK   60  A    between atoms: _147  and  _150
REMARK   61  A    between atoms: _150  and  _151
REMARK   62  A    between atoms: _154  and  _156
REMARK   63  A    between atoms: _156  and  _157
REMARK   64  A    between atoms: _156  and  _159
REMARK   65  A    between atoms: _162  and  _164
REMARK   66  A    between atoms: _164  and  _165
REMARK   67  A    between atoms: _164  and  _167
REMARK   68  A    between atoms: _167  and  _168
REMARK   69  A    between atoms: _168  and  _169
REMARK   70  A    between atoms: _174  and  _176
REMARK   71  A    between atoms: _176  and  _177
REMARK   72  A    between atoms: _176  and  _179
REMARK   73  A    between atoms: _179  and  _180
REMARK   74  A    between atoms: _180  and  _181
REMARK   75  A    between atoms: _186  and  _188
REMARK   76  A    between atoms: _188  and  _189
REMARK   77  A    between atoms: _192  and  _194
REMARK   78  A    between atoms: _194  and  _195
REMARK   79  A    between atoms: _194  and  _197
REMARK   80  A    between atoms: _197  and  _198
REMARK   81  A    between atoms: _198  and  _199
REMARK   82  A    between atoms: _202  and  _204
REMARK   83  A    between atoms: _204  and  _205
REMARK   84  A    between atoms: _204  and  _207
REMARK   85  A    between atoms: _207  and  _208
REMARK   86  A    between atoms: _211  and  _213
REMARK   87  A    between atoms: _213  and  _214
REMARK   88  A    between atoms: _213  and  _216
REMARK   89  A    between atoms: _216  and  _217
REMARK   90  A    between atoms: _217  and  _218
REMARK   91  A    between atoms: _220  and  _222
REMARK   92  A    between atoms: _222  and  _223
REMARK   93  A    between atoms: _222  and  _225
REMARK   94  A    between atoms: _225  and  _226
REMARK   95  A    between atoms: _229  and  _231
REMARK   96  A    between atoms: _231  and  _232
REMARK   97  A    between atoms: _231  and  _234
REMARK   98  A    between atoms: _234  and  _235
REMARK   99  A    between atoms: _235  and  _236
REMARK  100  A    between atoms: _236  and  _237
REMARK  101  A    between atoms: _237  and  _238
REMARK  102  A    between atoms: _242  and  _244
REMARK  103  A    between atoms: _244  and  _245
REMARK  104  A    between atoms: _244  and  _247
REMARK  105  A    between atoms: _247  and  _248
REMARK  106  A    between atoms: _248  and  _249
REMARK  107  A    between atoms: _252  and  _254
REMARK  108  A    between atoms: _254  and  _255
REMARK  109  A    between atoms: _254  and  _257
REMARK  110  A    between atoms: _257  and  _258
REMARK  111  A    between atoms: _261  and  _263
REMARK  112  A    between atoms: _263  and  _264
REMARK  113  A    between atoms: _263  and  _266
REMARK  114  A    between atoms: _266  and  _267
REMARK  115  A    between atoms: _270  and  _272
REMARK  116  A    between atoms: _272  and  _273
REMARK  117  A    between atoms: _272  and  _275
REMARK  118  A    between atoms: _275  and  _276
REMARK  119  A    between atoms: _279  and  _281
REMARK  120  A    between atoms: _281  and  _282
REMARK  121  A    between atoms: _281  and  _284
REMARK                            x       y       z     vdW  Elec       q    Type
REMARK                         _______ _______ _______ _____ _____    ______ ____
ROOT
ATOM      1  O   HOH     1      21.984  14.403 -10.732  0.00  0.00    +0.000 OA
ENDROOT
TORSDOF 0
REMARK  Name = ../refined-set-2016/4b2l/4b2l_pocket.pdb
REMARK  121 active torsions:
REMARK  status: ('A' for Active; 'I' for Inactive)
REMARK    1  A    between atoms: _1  and  _3
REMARK    2  A    between atoms: _3  and  _4
REMARK    3  A    between atoms: _3  and  _6
REMARK    4  A    between atoms: _9  and  _11
REMARK    5  A    between atoms: _11  and  _12
REMARK    6  A    between atoms: _11  and  _14
REMARK    7  A    between atoms: _14  and  _15
REMARK    8  A    between atoms: _15  and  _16
REMARK    9  A    between atoms: _18  and  _20
REMARK   10  A    between atoms: _20  and  _21
REMARK   11  A    between atoms: _20  and  _23
REMARK   12  A    between atoms: _23  and  _24
REMARK   13  A    between atoms: _34  and  _36
REMARK   14  A    between atoms: _36  and  _37
REMARK   15  A    between atoms: _36  and  _39
REMARK   16  A    between atoms: _39  and  _40
REMARK   17  A    between atoms: _43  and  _45
REMARK   18  A    between atoms: _45  and  _46
REMARK   19  A    between atoms: _45  and  _48
REMARK   20  A    between atoms: _48  and  _49
REMARK   21  A    between atoms: _52  and  _54
REMARK   22  A    between atoms: _54  and  _55
REMARK   23  A    between atoms: _54  and  _57
REMARK   24  A    between atoms: _57  and  _58
REMARK   25  A    between atoms: _61  and  _63
REMARK   26  A    between atoms: _63  and  _64
REMARK   27  A    between atoms: _67  and  _69
REMARK   28  A    between atoms: _69  and  _70
REMARK   29  A    between atoms: _69  and  _72
REMARK   30  A    between atoms: _72  and  _73
REMARK   31  A    between atoms: _78  and  _79
REMARK   32  A    between atoms: _81  and  _83
REMARK   33  A    between atoms: _83  and  _84
REMARK   34  A    between atoms: _87  and  _89
REMARK   35  A    between atoms: _89  and  _90
REMARK   36  A    between atoms: _89  and  _92
REMARK   37  A    between atoms: _92  and  _93
REMARK   38  A    between atoms: _93  and  _94
REMARK   39  A    between atoms: _94  and  _95
REMARK   40  A    between atoms: _104  and  _106
REMARK   41  A    between atoms: _106  and  _107
REMARK   42  A    between atoms: _106  and  _109
REMARK   43  A    between atoms: _109  and  _110
REMARK   44  A    between atoms: _115  and  _117
REMARK   45  A    between atoms: _117  and  _118
REMARK   46  A    between atoms: _117  and  _120
REMARK   47  A    between atoms: _120  and  _121
REMARK   48  A    between atoms: _121  and  _122
REMARK   49  A    between atoms: _127  and  _129
REMARK   50  A    between atoms: _129  and  _130
REMARK   51  A    between atoms: _129  and  _132
REMARK   52  A    between atoms: _132  and  _133
REMARK   53  A    between atoms: _133  and  _134
REMARK   54  A    between atoms: _136  and  _138
REMARK   55  A    between atoms: _138  and  _139
REMARK   56  A    between atoms: _138  and  _141
REMARK   57  A    between atoms: _141  and  _142
REMARK   58  A    between atoms: _145  and  _147
REMARK   59  A    between atoms: _147  and  _148
REMARK   60  A    between atoms: _147  and  _150
REMARK   61  A    between atoms: _150  and  _151
REMARK   62  A    between atoms: _154  and  _156
REMARK   63  A    between atoms: _156  and  _157
REMARK   64  A    between atoms: _156  and  _159
REMARK   65  A    between atoms: _162  and  _164
REMARK   66  A    between atoms: _164  and  _165
REMARK   67  A    between atoms: _164  and  _167
REMARK   68  A    between atoms: _167  and  _168
REMARK   69  A    between atoms: _168  and  _169
REMARK   70  A    between atoms: _174  and  _176
REMARK   71  A    between atoms: _176  and  _177
REMARK   72  A    between atoms: _176  and  _179
REMARK   73  A    between atoms: _179  and  _180
REMARK   74  A    between atoms: _180  and  _181
REMARK   75  A    between atoms: _186  and  _188
REMARK   76  A    between atoms: _188  and  _189
REMARK   77  A    between atoms: _192  and  _194
REMARK   78  A    between atoms: _194  and  _195
REMARK   79  A    between atoms: _194  and  _197
REMARK   80  A    between atoms: _197  and  _198
REMARK   81  A    between atoms: _198  and  _199
REMARK   82  A    between atoms: _202  and  _204
REMARK   83  A    between atoms: _204  and  _205
REMARK   84  A    between atoms: _204  and  _207
REMARK   85  A    between atoms: _207  and  _208
REMARK   86  A    between atoms: _211  and  _213
REMARK   87  A    between atoms: _213  and  _214
REMARK   88  A    between atoms: _213  and  _216
REMARK   89  A    between atoms: _216  and  _217
REMARK   90  A    between atoms: _217  and  _218
REMARK   91  A    between atoms: _220  and  _222
REMARK   92  A    between atoms: _222  and  _223
REMARK   93  A    between atoms: _222  and  _225
REMARK   94  A    between atoms: _225  and  _226
REMARK   95  A    between atoms: _229  and  _231
REMARK   96  A    between atoms: _231  and  _232
REMARK   97  A    between atoms: _231  and  _234
REMARK   98  A    between atoms: _234  and  _235
REMARK   99  A    between atoms: _235  and  _236
REMARK  100  A    between atoms: _236  and  _237
REMARK  101  A    between atoms: _237  and  _238
REMARK  102  A    between atoms: _242  and  _244
REMARK  103  A    between atoms: _244  and  _245
REMARK  104  A    between atoms: _244  and  _247
REMARK  105  A    between atoms: _247  and  _248
REMARK  106  A    between atoms: _248  and  _249
REMARK  107  A    between atoms: _252  and  _254
REMARK  108  A    between atoms: _254  and  _255
REMARK  109  A    between atoms: _254  and  _257
REMARK  110  A    between atoms: _257  and  _258
REMARK  111  A    between atoms: _261  and  _263
REMARK  112  A    between atoms: _263  and  _264
REMARK  113  A    between atoms: _263  and  _266
REMARK  114  A    between atoms: _266  and  _267
REMARK  115  A    between atoms: _270  and  _272
REMARK  116  A    between atoms: _272  and  _273
REMARK  117  A    between atoms: _272  and  _275
REMARK  118  A    between atoms: _275  and  _276
REMARK  119  A    between atoms: _279  and  _281
REMARK  120  A    between atoms: _281  and  _282
REMARK  121  A    between atoms: _281  and  _284
REMARK                            x       y       z     vdW  Elec       q    Type
REMARK                         _______ _______ _______ _____ _____    ______ ____
ROOT
ATOM      1  O   HOH     1      20.751  16.395  -5.440  0.00  0.00    +0.000 OA
ENDROOT
TORSDOF 0
REMARK  Name = ../refined-set-2016/4b2l/4b2l_pocket.pdb
REMARK  121 active torsions:
REMARK  status: ('A' for Active; 'I' for Inactive)
REMARK    1  A    between atoms: _1  and  _3
REMARK    2  A    between atoms: _3  and  _4
REMARK    3  A    between atoms: _3  and  _6
REMARK    4  A    between atoms: _9  and  _11
REMARK    5  A    between atoms: _11  and  _12
REMARK    6  A    between atoms: _11  and  _14
REMARK    7  A    between atoms: _14  and  _15
REMARK    8  A    between atoms: _15  and  _16
REMARK    9  A    between atoms: _18  and  _20
REMARK   10  A    between atoms: _20  and  _21
REMARK   11  A    between atoms: _20  and  _23
REMARK   12  A    between atoms: _23  and  _24
REMARK   13  A    between atoms: _34  and  _36
REMARK   14  A    between atoms: _36  and  _37
REMARK   15  A    between atoms: _36  and  _39
REMARK   16  A    between atoms: _39  and  _40
REMARK   17  A    between atoms: _43  and  _45
REMARK   18  A    between atoms: _45  and  _46
REMARK   19  A    between atoms: _45  and  _48
REMARK   20  A    between atoms: _48  and  _49
REMARK   21  A    between atoms: _52  and  _54
REMARK   22  A    between atoms: _54  and  _55
REMARK   23  A    between atoms: _54  and  _57
REMARK   24  A    between atoms: _57  and  _58
REMARK   25  A    between atoms: _61  and  _63
REMARK   26  A    between atoms: _63  and  _64
REMARK   27  A    between atoms: _67  and  _69
REMARK   28  A    between atoms: _69  and  _70
REMARK   29  A    between atoms: _69  and  _72
REMARK   30  A    between atoms: _72  and  _73
REMARK   31  A    between atoms: _78  and  _79
REMARK   32  A    between atoms: _81  and  _83
REMARK   33  A    between atoms: _83  and  _84
REMARK   34  A    between atoms: _87  and  _89
REMARK   35  A    between atoms: _89  and  _90
REMARK   36  A    between atoms: _89  and  _92
REMARK   37  A    between atoms: _92  and  _93
REMARK   38  A    between atoms: _93  and  _94
REMARK   39  A    between atoms: _94  and  _95
REMARK   40  A    between atoms: _104  and  _106
REMARK   41  A    between atoms: _106  and  _107
REMARK   42  A    between atoms: _106  and  _109
REMARK   43  A    between atoms: _109  and  _110
REMARK   44  A    between atoms: _115  and  _117
REMARK   45  A    between atoms: _117  and  _118
REMARK   46  A    between atoms: _117  and  _120
REMARK   47  A    between atoms: _120  and  _121
REMARK   48  A    between atoms: _121  and  _122
REMARK   49  A    between atoms: _127  and  _129
REMARK   50  A    between atoms: _129  and  _130
REMARK   51  A    between atoms: _129  and  _132
REMARK   52  A    between atoms: _132  and  _133
REMARK   53  A    between atoms: _133  and  _134
REMARK   54  A    between atoms: _136  and  _138
REMARK   55  A    between atoms: _138  and  _139
REMARK   56  A    between atoms: _138  and  _141
REMARK   57  A    between atoms: _141  and  _142
REMARK   58  A    between atoms: _145  and  _147
REMARK   59  A    between atoms: _147  and  _148
REMARK   60  A    between atoms: _147  and  _150
REMARK   61  A    between atoms: _150  and  _151
REMARK   62  A    between atoms: _154  and  _156
REMARK   63  A    between atoms: _156  and  _157
REMARK   64  A    between atoms: _156  and  _159
REMARK   65  A    between atoms: _162  and  _164
REMARK   66  A    between atoms: _164  and  _165
REMARK   67  A    between atoms: _164  and  _167
REMARK   68  A    between atoms: _167  and  _168
REMARK   69  A    between atoms: _168  and  _169
REMARK   70  A    between atoms: _174  and  _176
REMARK   71  A    between atoms: _176  and  _177
REMARK   72  A    between atoms: _176  and  _179
REMARK   73  A    between atoms: _179  and  _180
REMARK   74  A    between atoms: _180  and  _181
REMARK   75  A    between atoms: _186  and  _188
REMARK   76  A    between atoms: _188  and  _189
REMARK   77  A    between atoms: _192  and  _194
REMARK   78  A    between atoms: _194  and  _195
REMARK   79  A    between atoms: _194  and  _197
REMARK   80  A    between atoms: _197  and  _198
REMARK   81  A    between atoms: _198  and  _199
REMARK   82  A    between atoms: _202  and  _204
REMARK   83  A    between atoms: _204  and  _205
REMARK   84  A    between atoms: _204  and  _207
REMARK   85  A    between atoms: _207  and  _208
REMARK   86  A    between atoms: _211  and  _213
REMARK   87  A    between atoms: _213  and  _214
REMARK   88  A    between atoms: _213  and  _216
REMARK   89  A    between atoms: _216  and  _217
REMARK   90  A    between atoms: _217  and  _218
REMARK   91  A    between atoms: _220  and  _222
REMARK   92  A    between atoms: _222  and  _223
REMARK   93  A    between atoms: _222  and  _225
REMARK   94  A    between atoms: _225  and  _226
REMARK   95  A    between atoms: _229  and  _231
REMARK   96  A    between atoms: _231  and  _232
REMARK   97  A    between atoms: _231  and  _234
REMARK   98  A    between atoms: _234  and  _235
REMARK   99  A    between atoms: _235  and  _236
REMARK  100  A    between atoms: _236  and  _237
REMARK  101  A    between atoms: _237  and  _238
REMARK  102  A    between atoms: _242  and  _244
REMARK  103  A    between atoms: _244  and  _245
REMARK  104  A    between atoms: _244  and  _247
REMARK  105  A    between atoms: _247  and  _248
REMARK  106  A    between atoms: _248  and  _249
REMARK  107  A    between atoms: _252  and  _254
REMARK  108  A    between atoms: _254  and  _255
REMARK  109  A    between atoms: _254  and  _257
REMARK  110  A    between atoms: _257  and  _258
REMARK  111  A    between atoms: _261  and  _263
REMARK  112  A    between atoms: _263  and  _264
REMARK  113  A    between atoms: _263  and  _266
REMARK  114  A    between atoms: _266  and  _267
REMARK  115  A    between atoms: _270  and  _272
REMARK  116  A    between atoms: _272  and  _273
REMARK  117  A    between atoms: _272  and  _275
REMARK  118  A    between atoms: _275  and  _276
REMARK  119  A    between atoms: _279  and  _281
REMARK  120  A    between atoms: _281  and  _282
REMARK  121  A    between atoms: _281  and  _284
REMARK                            x       y       z     vdW  Elec       q    Type
REMARK                         _______ _______ _______ _____ _____    ______ ____
ROOT
ATOM      1  O   HOH     1      22.870   3.847  -5.429  0.00  0.00    +0.000 OA
ENDROOT
TORSDOF 0
