REMARK  Name = ../refined-set-2016/4ll3/4ll3_pocket.pdb
REMARK  228 active torsions:
REMARK  status: ('A' for Active; 'I' for Inactive)
REMARK    1  A    between atoms: _1  and  _3
REMARK    2  A    between atoms: _3  and  _4
REMARK    3  A    between atoms: _3  and  _6
REMARK    4  A    between atoms: _6  and  _7
REMARK    5  A    between atoms: _7  and  _8
REMARK    6  A    between atoms: _8  and  _9
REMARK    7  A    between atoms: _18  and  _20
REMARK    8  A    between atoms: _20  and  _21
REMARK    9  A    between atoms: _20  and  _23
REMARK   10  A    between atoms: _23  and  _24
REMARK   11  A    between atoms: _27  and  _29
REMARK   12  A    between atoms: _29  and  _30
REMARK   13  A    between atoms: _29  and  _32
REMARK   14  A    between atoms: _32  and  _33
REMARK   15  A    between atoms: _36  and  _38
REMARK   16  A    between atoms: _38  and  _39
REMARK   17  A    between atoms: _38  and  _41
REMARK   18  A    between atoms: _41  and  _42
REMARK   19  A    between atoms: _45  and  _47
REMARK   20  A    between atoms: _47  and  _48
REMARK   21  A    between atoms: _47  and  _50
REMARK   22  A    between atoms: _50  and  _51
REMARK   23  A    between atoms: _54  and  _56
REMARK   24  A    between atoms: _56  and  _57
REMARK   25  A    between atoms: _59  and  _61
REMARK   26  A    between atoms: _61  and  _62
REMARK   27  A    between atoms: _65  and  _67
REMARK   28  A    between atoms: _67  and  _68
REMARK   29  A    between atoms: _67  and  _70
REMARK   30  A    between atoms: _70  and  _71
REMARK   31  A    between atoms: _74  and  _76
REMARK   32  A    between atoms: _76  and  _77
REMARK   33  A    between atoms: _76  and  _79
REMARK   34  A    between atoms: _79  and  _80
REMARK   35  A    between atoms: _80  and  _82
REMARK   36  A    between atoms: _83  and  _85
REMARK   37  A    between atoms: _85  and  _86
REMARK   38  A    between atoms: _85  and  _88
REMARK   39  A    between atoms: _88  and  _89
REMARK   40  A    between atoms: _92  and  _94
REMARK   41  A    between atoms: _94  and  _95
REMARK   42  A    between atoms: _94  and  _97
REMARK   43  A    between atoms: _100  and  _102
REMARK   44  A    between atoms: _102  and  _103
REMARK   45  A    between atoms: _102  and  _105
REMARK   46  A    between atoms: _105  and  _106
REMARK   47  A    between atoms: _106  and  _107
REMARK   48  A    between atoms: _107  and  _108
REMARK   49  A    between atoms: _108  and  _109
REMARK   50  A    between atoms: _113  and  _115
REMARK   51  A    between atoms: _115  and  _116
REMARK   52  A    between atoms: _115  and  _118
REMARK   53  A    between atoms: _118  and  _119
REMARK   54  A    between atoms: _119  and  _120
REMARK   55  A    between atoms: _122  and  _124
REMARK   56  A    between atoms: _124  and  _125
REMARK   57  A    between atoms: _124  and  _127
REMARK   58  A    between atoms: _127  and  _128
REMARK   59  A    between atoms: _131  and  _133
REMARK   60  A    between atoms: _133  and  _134
REMARK   61  A    between atoms: _136  and  _138
REMARK   62  A    between atoms: _138  and  _139
REMARK   63  A    between atoms: _141  and  _143
REMARK   64  A    between atoms: _143  and  _144
REMARK   65  A    between atoms: _143  and  _146
REMARK   66  A    between atoms: _146  and  _147
REMARK   67  A    between atoms: _150  and  _152
REMARK   68  A    between atoms: _152  and  _153
REMARK   69  A    between atoms: _155  and  _157
REMARK   70  A    between atoms: _157  and  _158
REMARK   71  A    between atoms: _160  and  _162
REMARK   72  A    between atoms: _162  and  _163
REMARK   73  A    between atoms: _162  and  _165
REMARK   74  A    between atoms: _165  and  _166
REMARK   75  A    between atoms: _172  and  _174
REMARK   76  A    between atoms: _174  and  _175
REMARK   77  A    between atoms: _174  and  _177
REMARK   78  A    between atoms: _177  and  _178
REMARK   79  A    between atoms: _181  and  _183
REMARK   80  A    between atoms: _183  and  _184
REMARK   81  A    between atoms: _183  and  _186
REMARK   82  A    between atoms: _189  and  _191
REMARK   83  A    between atoms: _191  and  _192
REMARK   84  A    between atoms: _191  and  _194
REMARK   85  A    between atoms: _194  and  _195
REMARK   86  A    between atoms: _199  and  _200
REMARK   87  A    between atoms: _205  and  _207
REMARK   88  A    between atoms: _207  and  _208
REMARK   89  A    between atoms: _207  and  _210
REMARK   90  A    between atoms: _210  and  _211
REMARK   91  A    between atoms: _215  and  _216
REMARK   92  A    between atoms: _221  and  _223
REMARK   93  A    between atoms: _223  and  _224
REMARK   94  A    between atoms: _223  and  _226
REMARK   95  A    between atoms: _229  and  _231
REMARK   96  A    between atoms: _231  and  _232
REMARK   97  A    between atoms: _231  and  _234
REMARK   98  A    between atoms: _234  and  _235
REMARK   99  A    between atoms: _240  and  _242
REMARK  100  A    between atoms: _242  and  _243
REMARK  101  A    between atoms: _242  and  _245
REMARK  102  A    between atoms: _245  and  _246
REMARK  103  A    between atoms: _249  and  _251
REMARK  104  A    between atoms: _251  and  _252
REMARK  105  A    between atoms: _251  and  _254
REMARK  106  A    between atoms: _254  and  _255
REMARK  107  A    between atoms: _258  and  _260
REMARK  108  A    between atoms: _260  and  _261
REMARK  109  A    between atoms: _263  and  _265
REMARK  110  A    between atoms: _265  and  _266
REMARK  111  A    between atoms: _265  and  _268
REMARK  112  A    between atoms: _268  and  _269
REMARK  113  A    between atoms: _269  and  _270
REMARK  114  A    between atoms: _270  and  _271
REMARK  115  A    between atoms: _280  and  _282
REMARK  116  A    between atoms: _282  and  _283
REMARK  117  A    between atoms: _282  and  _285
REMARK  118  A    between atoms: _285  and  _286
REMARK  119  A    between atoms: _291  and  _293
REMARK  120  A    between atoms: _293  and  _294
REMARK  121  A    between atoms: _293  and  _296
REMARK  122  A    between atoms: _296  and  _297
REMARK  123  A    between atoms: _297  and  _298
REMARK  124  A    between atoms: _298  and  _299
REMARK  125  A    between atoms: _308  and  _310
REMARK  126  A    between atoms: _310  and  _311
REMARK  127  A    between atoms: _310  and  _313
REMARK  128  A    between atoms: _313  and  _314
REMARK  129  A    between atoms: _317  and  _319
REMARK  130  A    between atoms: _319  and  _320
REMARK  131  A    between atoms: _319  and  _322
REMARK  132  A    between atoms: _322  and  _323
REMARK  133  A    between atoms: _326  and  _328
REMARK  134  A    between atoms: _328  and  _329
REMARK  135  A    between atoms: _328  and  _331
REMARK  136  A    between atoms: _331  and  _332
REMARK  137  A    between atoms: _335  and  _337
REMARK  138  A    between atoms: _337  and  _338
REMARK  139  A    between atoms: _337  and  _340
REMARK  140  A    between atoms: _340  and  _341
REMARK  141  A    between atoms: _344  and  _346
REMARK  142  A    between atoms: _346  and  _347
REMARK  143  A    between atoms: _349  and  _351
REMARK  144  A    between atoms: _351  and  _352
REMARK  145  A    between atoms: _355  and  _357
REMARK  146  A    between atoms: _357  and  _358
REMARK  147  A    between atoms: _357  and  _360
REMARK  148  A    between atoms: _360  and  _361
REMARK  149  A    between atoms: _364  and  _366
REMARK  150  A    between atoms: _366  and  _367
REMARK  151  A    between atoms: _366  and  _369
REMARK  152  A    between atoms: _369  and  _370
REMARK  153  A    between atoms: _370  and  _372
REMARK  154  A    between atoms: _373  and  _375
REMARK  155  A    between atoms: _375  and  _376
REMARK  156  A    between atoms: _375  and  _378
REMARK  157  A    between atoms: _378  and  _379
REMARK  158  A    between atoms: _382  and  _384
REMARK  159  A    between atoms: _384  and  _385
REMARK  160  A    between atoms: _384  and  _387
REMARK  161  A    between atoms: _390  and  _392
REMARK  162  A    between atoms: _392  and  _393
REMARK  163  A    between atoms: _392  and  _395
REMARK  164  A    between atoms: _395  and  _396
REMARK  165  A    between atoms: _396  and  _397
REMARK  166  A    between atoms: _397  and  _398
REMARK  167  A    between atoms: _398  and  _399
REMARK  168  A    between atoms: _403  and  _405
REMARK  169  A    between atoms: _405  and  _406
REMARK  170  A    between atoms: _405  and  _408
REMARK  171  A    between atoms: _408  and  _409
REMARK  172  A    between atoms: _409  and  _410
REMARK  173  A    between atoms: _412  and  _414
REMARK  174  A    between atoms: _414  and  _415
REMARK  175  A    between atoms: _414  and  _417
REMARK  176  A    between atoms: _417  and  _418
REMARK  177  A    between atoms: _421  and  _423
REMARK  178  A    between atoms: _423  and  _424
REMARK  179  A    between atoms: _426  and  _428
REMARK  180  A    between atoms: _428  and  _429
REMARK  181  A    between atoms: _431  and  _433
REMARK  182  A    between atoms: _433  and  _434
REMARK  183  A    between atoms: _433  and  _436
REMARK  184  A    between atoms: _436  and  _437
REMARK  185  A    between atoms: _440  and  _442
REMARK  186  A    between atoms: _442  and  _443
REMARK  187  A    between atoms: _445  and  _447
REMARK  188  A    between atoms: _447  and  _448
REMARK  189  A    between atoms: _450  and  _452
REMARK  190  A    between atoms: _452  and  _453
REMARK  191  A    between atoms: _452  and  _455
REMARK  192  A    between atoms: _455  and  _456
REMARK  193  A    between atoms: _459  and  _461
REMARK  194  A    between atoms: _461  and  _462
REMARK  195  A    between atoms: _461  and  _464
REMARK  196  A    between atoms: _464  and  _465
REMARK  197  A    between atoms: _468  and  _470
REMARK  198  A    between atoms: _470  and  _471
REMARK  199  A    between atoms: _470  and  _473
REMARK  200  A    between atoms: _473  and  _474
REMARK  201  A    between atoms: _478  and  _479
REMARK  202  A    between atoms: _484  and  _486
REMARK  203  A    between atoms: _486  and  _487
REMARK  204  A    between atoms: _486  and  _489
REMARK  205  A    between atoms: _492  and  _494
REMARK  206  A    between atoms: _494  and  _495
REMARK  207  A    between atoms: _494  and  _497
REMARK  208  A    between atoms: _497  and  _498
REMARK  209  A    between atoms: _503  and  _505
REMARK  210  A    between atoms: _505  and  _506
REMARK  211  A    between atoms: _505  and  _508
REMARK  212  A    between atoms: _508  and  _509
REMARK  213  A    between atoms: _512  and  _514
REMARK  214  A    between atoms: _514  and  _515
REMARK  215  A    between atoms: _514  and  _517
REMARK  216  A    between atoms: _517  and  _518
REMARK  217  A    between atoms: _521  and  _523
REMARK  218  A    between atoms: _523  and  _524
REMARK  219  A    between atoms: _526  and  _528
REMARK  220  A    between atoms: _528  and  _529
REMARK  221  A    between atoms: _528  and  _531
REMARK  222  A    between atoms: _531  and  _532
REMARK  223  A    between atoms: _532  and  _533
REMARK  224  A    between atoms: _533  and  _534
REMARK  225  A    between atoms: _543  and  _545
REMARK  226  A    between atoms: _545  and  _546
REMARK  227  A    between atoms: _545  and  _548
REMARK  228  A    between atoms: _548  and  _549
REMARK                            x       y       z     vdW  Elec       q    Type
REMARK                         _______ _______ _______ _____ _____    ______ ____
ROOT
ATOM      1  NE  ARG A   1     -17.959  14.685  32.270  0.00  0.00    -0.265 N 
ATOM      2  CZ  ARG A   1     -17.708  13.504  32.834  0.00  0.00    +0.342 C 
ATOM      3  NH2 ARG A   1     -18.700  12.758  33.336  0.00  0.00    -0.292 N 
ATOM      4 HH21 ARG A   1     -18.489  11.838  33.773  0.00  0.00    +0.255 HD
ATOM      5 HH22 ARG A   1     -19.682  13.098  33.289  0.00  0.00    +0.255 HD
ATOM      6  NH1 ARG A   1     -16.449  13.063  32.886  0.00  0.00    -0.292 N 
ATOM      7 HH11 ARG A   1     -16.238  12.143  33.323  0.00  0.00    +0.255 HD
ATOM      8 HH12 ARG A   1     -15.679  13.639  32.489  0.00  0.00    +0.255 HD
ATOM      9  HE  ARG A   1     -17.146  15.218  31.901  0.00  0.00    +0.259 HD
ENDROOT
BRANCH   1  10
ATOM     10  CD  ARG A   1     -19.279  15.294  32.126  0.00  0.00    +0.174 C 
BRANCH  10  11
ATOM     11  CG  ARG A   1     -19.144  16.793  32.117  0.00  0.00    +0.045 C 
BRANCH  11  12
ATOM     12  CB  ARG A   1     -20.351  17.457  31.493  0.00  0.00    +0.029 C 
BRANCH  12  13
ATOM     13  CA  ARG A   1     -20.424  18.936  31.818  0.00  0.00    +0.133 C 
BRANCH  13  14
ATOM     14  N   ARG A   1     -20.994  19.125  33.191  0.00  0.00    -0.239 NA
ATOM     15  H   ARG A   1     -21.172  18.294  33.790  0.00  0.00    +0.142 HD
ENDBRANCH  13  14
BRANCH  13  16
ATOM     16  C   ARG A   1     -21.302  19.611  30.767  0.00  0.00    +0.224 C 
ATOM     17  O   ARG A   1     -22.519  19.469  30.819  0.00  0.00    -0.287 OA
ENDBRANCH  13  16
ENDBRANCH  12  13
ENDBRANCH  11  12
ENDBRANCH  10  11
ENDBRANCH   1  10
TORSDOF 6
REMARK  Name = ../refined-set-2016/4ll3/4ll3_pocket.pdb
REMARK  228 active torsions:
REMARK  status: ('A' for Active; 'I' for Inactive)
REMARK    1  A    between atoms: _1  and  _3
REMARK    2  A    between atoms: _3  and  _4
REMARK    3  A    between atoms: _3  and  _6
REMARK    4  A    between atoms: _6  and  _7
REMARK    5  A    between atoms: _7  and  _8
REMARK    6  A    between atoms: _8  and  _9
REMARK    7  A    between atoms: _18  and  _20
REMARK    8  A    between atoms: _20  and  _21
REMARK    9  A    between atoms: _20  and  _23
REMARK   10  A    between atoms: _23  and  _24
REMARK   11  A    between atoms: _27  and  _29
REMARK   12  A    between atoms: _29  and  _30
REMARK   13  A    between atoms: _29  and  _32
REMARK   14  A    between atoms: _32  and  _33
REMARK   15  A    between atoms: _36  and  _38
REMARK   16  A    between atoms: _38  and  _39
REMARK   17  A    between atoms: _38  and  _41
REMARK   18  A    between atoms: _41  and  _42
REMARK   19  A    between atoms: _45  and  _47
REMARK   20  A    between atoms: _47  and  _48
REMARK   21  A    between atoms: _47  and  _50
REMARK   22  A    between atoms: _50  and  _51
REMARK   23  A    between atoms: _54  and  _56
REMARK   24  A    between atoms: _56  and  _57
REMARK   25  A    between atoms: _59  and  _61
REMARK   26  A    between atoms: _61  and  _62
REMARK   27  A    between atoms: _65  and  _67
REMARK   28  A    between atoms: _67  and  _68
REMARK   29  A    between atoms: _67  and  _70
REMARK   30  A    between atoms: _70  and  _71
REMARK   31  A    between atoms: _74  and  _76
REMARK   32  A    between atoms: _76  and  _77
REMARK   33  A    between atoms: _76  and  _79
REMARK   34  A    between atoms: _79  and  _80
REMARK   35  A    between atoms: _80  and  _82
REMARK   36  A    between atoms: _83  and  _85
REMARK   37  A    between atoms: _85  and  _86
REMARK   38  A    between atoms: _85  and  _88
REMARK   39  A    between atoms: _88  and  _89
REMARK   40  A    between atoms: _92  and  _94
REMARK   41  A    between atoms: _94  and  _95
REMARK   42  A    between atoms: _94  and  _97
REMARK   43  A    between atoms: _100  and  _102
REMARK   44  A    between atoms: _102  and  _103
REMARK   45  A    between atoms: _102  and  _105
REMARK   46  A    between atoms: _105  and  _106
REMARK   47  A    between atoms: _106  and  _107
REMARK   48  A    between atoms: _107  and  _108
REMARK   49  A    between atoms: _108  and  _109
REMARK   50  A    between atoms: _113  and  _115
REMARK   51  A    between atoms: _115  and  _116
REMARK   52  A    between atoms: _115  and  _118
REMARK   53  A    between atoms: _118  and  _119
REMARK   54  A    between atoms: _119  and  _120
REMARK   55  A    between atoms: _122  and  _124
REMARK   56  A    between atoms: _124  and  _125
REMARK   57  A    between atoms: _124  and  _127
REMARK   58  A    between atoms: _127  and  _128
REMARK   59  A    between atoms: _131  and  _133
REMARK   60  A    between atoms: _133  and  _134
REMARK   61  A    between atoms: _136  and  _138
REMARK   62  A    between atoms: _138  and  _139
REMARK   63  A    between atoms: _141  and  _143
REMARK   64  A    between atoms: _143  and  _144
REMARK   65  A    between atoms: _143  and  _146
REMARK   66  A    between atoms: _146  and  _147
REMARK   67  A    between atoms: _150  and  _152
REMARK   68  A    between atoms: _152  and  _153
REMARK   69  A    between atoms: _155  and  _157
REMARK   70  A    between atoms: _157  and  _158
REMARK   71  A    between atoms: _160  and  _162
REMARK   72  A    between atoms: _162  and  _163
REMARK   73  A    between atoms: _162  and  _165
REMARK   74  A    between atoms: _165  and  _166
REMARK   75  A    between atoms: _172  and  _174
REMARK   76  A    between atoms: _174  and  _175
REMARK   77  A    between atoms: _174  and  _177
REMARK   78  A    between atoms: _177  and  _178
REMARK   79  A    between atoms: _181  and  _183
REMARK   80  A    between atoms: _183  and  _184
REMARK   81  A    between atoms: _183  and  _186
REMARK   82  A    between atoms: _189  and  _191
REMARK   83  A    between atoms: _191  and  _192
REMARK   84  A    between atoms: _191  and  _194
REMARK   85  A    between atoms: _194  and  _195
REMARK   86  A    between atoms: _199  and  _200
REMARK   87  A    between atoms: _205  and  _207
REMARK   88  A    between atoms: _207  and  _208
REMARK   89  A    between atoms: _207  and  _210
REMARK   90  A    between atoms: _210  and  _211
REMARK   91  A    between atoms: _215  and  _216
REMARK   92  A    between atoms: _221  and  _223
REMARK   93  A    between atoms: _223  and  _224
REMARK   94  A    between atoms: _223  and  _226
REMARK   95  A    between atoms: _229  and  _231
REMARK   96  A    between atoms: _231  and  _232
REMARK   97  A    between atoms: _231  and  _234
REMARK   98  A    between atoms: _234  and  _235
REMARK   99  A    between atoms: _240  and  _242
REMARK  100  A    between atoms: _242  and  _243
REMARK  101  A    between atoms: _242  and  _245
REMARK  102  A    between atoms: _245  and  _246
REMARK  103  A    between atoms: _249  and  _251
REMARK  104  A    between atoms: _251  and  _252
REMARK  105  A    between atoms: _251  and  _254
REMARK  106  A    between atoms: _254  and  _255
REMARK  107  A    between atoms: _258  and  _260
REMARK  108  A    between atoms: _260  and  _261
REMARK  109  A    between atoms: _263  and  _265
REMARK  110  A    between atoms: _265  and  _266
REMARK  111  A    between atoms: _265  and  _268
REMARK  112  A    between atoms: _268  and  _269
REMARK  113  A    between atoms: _269  and  _270
REMARK  114  A    between atoms: _270  and  _271
REMARK  115  A    between atoms: _280  and  _282
REMARK  116  A    between atoms: _282  and  _283
REMARK  117  A    between atoms: _282  and  _285
REMARK  118  A    between atoms: _285  and  _286
REMARK  119  A    between atoms: _291  and  _293
REMARK  120  A    between atoms: _293  and  _294
REMARK  121  A    between atoms: _293  and  _296
REMARK  122  A    between atoms: _296  and  _297
REMARK  123  A    between atoms: _297  and  _298
REMARK  124  A    between atoms: _298  and  _299
REMARK  125  A    between atoms: _308  and  _310
REMARK  126  A    between atoms: _310  and  _311
REMARK  127  A    between atoms: _310  and  _313
REMARK  128  A    between atoms: _313  and  _314
REMARK  129  A    between atoms: _317  and  _319
REMARK  130  A    between atoms: _319  and  _320
REMARK  131  A    between atoms: _319  and  _322
REMARK  132  A    between atoms: _322  and  _323
REMARK  133  A    between atoms: _326  and  _328
REMARK  134  A    between atoms: _328  and  _329
REMARK  135  A    between atoms: _328  and  _331
REMARK  136  A    between atoms: _331  and  _332
REMARK  137  A    between atoms: _335  and  _337
REMARK  138  A    between atoms: _337  and  _338
REMARK  139  A    between atoms: _337  and  _340
REMARK  140  A    between atoms: _340  and  _341
REMARK  141  A    between atoms: _344  and  _346
REMARK  142  A    between atoms: _346  and  _347
REMARK  143  A    between atoms: _349  and  _351
REMARK  144  A    between atoms: _351  and  _352
REMARK  145  A    between atoms: _355  and  _357
REMARK  146  A    between atoms: _357  and  _358
REMARK  147  A    between atoms: _357  and  _360
REMARK  148  A    between atoms: _360  and  _361
REMARK  149  A    between atoms: _364  and  _366
REMARK  150  A    between atoms: _366  and  _367
REMARK  151  A    between atoms: _366  and  _369
REMARK  152  A    between atoms: _369  and  _370
REMARK  153  A    between atoms: _370  and  _372
REMARK  154  A    between atoms: _373  and  _375
REMARK  155  A    between atoms: _375  and  _376
REMARK  156  A    between atoms: _375  and  _378
REMARK  157  A    between atoms: _378  and  _379
REMARK  158  A    between atoms: _382  and  _384
REMARK  159  A    between atoms: _384  and  _385
REMARK  160  A    between atoms: _384  and  _387
REMARK  161  A    between atoms: _390  and  _392
REMARK  162  A    between atoms: _392  and  _393
REMARK  163  A    between atoms: _392  and  _395
REMARK  164  A    between atoms: _395  and  _396
REMARK  165  A    between atoms: _396  and  _397
REMARK  166  A    between atoms: _397  and  _398
REMARK  167  A    between atoms: _398  and  _399
REMARK  168  A    between atoms: _403  and  _405
REMARK  169  A    between atoms: _405  and  _406
REMARK  170  A    between atoms: _405  and  _408
REMARK  171  A    between atoms: _408  and  _409
REMARK  172  A    between atoms: _409  and  _410
REMARK  173  A    between atoms: _412  and  _414
REMARK  174  A    between atoms: _414  and  _415
REMARK  175  A    between atoms: _414  and  _417
REMARK  176  A    between atoms: _417  and  _418
REMARK  177  A    between atoms: _421  and  _423
REMARK  178  A    between atoms: _423  and  _424
REMARK  179  A    between atoms: _426  and  _428
REMARK  180  A    between atoms: _428  and  _429
REMARK  181  A    between atoms: _431  and  _433
REMARK  182  A    between atoms: _433  and  _434
REMARK  183  A    between atoms: _433  and  _436
REMARK  184  A    between atoms: _436  and  _437
REMARK  185  A    between atoms: _440  and  _442
REMARK  186  A    between atoms: _442  and  _443
REMARK  187  A    between atoms: _445  and  _447
REMARK  188  A    between atoms: _447  and  _448
REMARK  189  A    between atoms: _450  and  _452
REMARK  190  A    between atoms: _452  and  _453
REMARK  191  A    between atoms: _452  and  _455
REMARK  192  A    between atoms: _455  and  _456
REMARK  193  A    between atoms: _459  and  _461
REMARK  194  A    between atoms: _461  and  _462
REMARK  195  A    between atoms: _461  and  _464
REMARK  196  A    between atoms: _464  and  _465
REMARK  197  A    between atoms: _468  and  _470
REMARK  198  A    between atoms: _470  and  _471
REMARK  199  A    between atoms: _470  and  _473
REMARK  200  A    between atoms: _473  and  _474
REMARK  201  A    between atoms: _478  and  _479
REMARK  202  A    between atoms: _484  and  _486
REMARK  203  A    between atoms: _486  and  _487
REMARK  204  A    between atoms: _486  and  _489
REMARK  205  A    between atoms: _492  and  _494
REMARK  206  A    between atoms: _494  and  _495
REMARK  207  A    between atoms: _494  and  _497
REMARK  208  A    between atoms: _497  and  _498
REMARK  209  A    between atoms: _503  and  _505
REMARK  210  A    between atoms: _505  and  _506
REMARK  211  A    between atoms: _505  and  _508
REMARK  212  A    between atoms: _508  and  _509
REMARK  213  A    between atoms: _512  and  _514
REMARK  214  A    between atoms: _514  and  _515
REMARK  215  A    between atoms: _514  and  _517
REMARK  216  A    between atoms: _517  and  _518
REMARK  217  A    between atoms: _521  and  _523
REMARK  218  A    between atoms: _523  and  _524
REMARK  219  A    between atoms: _526  and  _528
REMARK  220  A    between atoms: _528  and  _529
REMARK  221  A    between atoms: _528  and  _531
REMARK  222  A    between atoms: _531  and  _532
REMARK  223  A    between atoms: _532  and  _533
REMARK  224  A    between atoms: _533  and  _534
REMARK  225  A    between atoms: _543  and  _545
REMARK  226  A    between atoms: _545  and  _546
REMARK  227  A    between atoms: _545  and  _548
REMARK  228  A    between atoms: _548  and  _549
REMARK                            x       y       z     vdW  Elec       q    Type
REMARK                         _______ _______ _______ _____ _____    ______ ____
ROOT
ATOM      1  C   GLY A   5      -9.220  20.696  23.856  0.00  0.00    +0.243 C 
ATOM      2  O   GLY A   5      -8.118  20.185  23.747  0.00  0.00    -0.273 OA
ATOM      3  N   ALA A   6     -10.223  20.435  23.014  0.00  0.00    -0.297 N 
ATOM      4  H   ALA A   6     -11.147  20.881  23.184  0.00  0.00    +0.150 HD
ENDROOT
BRANCH   3   5
ATOM      5  CA  ALA A   6     -10.073  19.551  21.867  0.00  0.00    +0.149 C 
ATOM      6  CB  ALA A   6     -11.338  18.685  21.729  0.00  0.00    +0.031 C 
BRANCH   5   7
ATOM      7  C   ALA A   6      -9.888  20.390  20.589  0.00  0.00    +0.241 C 
ATOM      8  O   ALA A   6     -10.784  21.158  20.227  0.00  0.00    -0.273 OA
ATOM      9  N   ASP A   7      -8.765  20.213  19.898  0.00  0.00    -0.297 N 
ATOM     10  H   ASP A   7      -8.017  19.607  20.292  0.00  0.00    +0.150 HD
BRANCH   9  11
ATOM     11  CA  ASP A   7      -8.554  20.855  18.588  0.00  0.00    +0.160 C 
BRANCH  11  12
ATOM     12  C   ASP A   7      -9.599  20.374  17.581  0.00  0.00    +0.241 C 
ATOM     13  N   UNK A   8      -9.881  19.063  17.609  0.00  0.00    -0.297 N 
ATOM     14  H   UNK A   8      -9.468  18.495  18.376  0.00  0.00    +0.150 HD
ATOM     15  O   ASP A   7     -10.131  21.182  16.807  0.00  0.00    -0.273 OA
BRANCH  13  16
ATOM     16  C   UNK A   8     -10.735  18.372  16.629  0.00  0.00    +0.160 C 
BRANCH  16  17
ATOM     17  C   UNK A   8     -11.939  17.692  17.268  0.00  0.00    +0.241 C 
ATOM     18  O   UNK A   8     -11.898  17.270  18.426  0.00  0.00    -0.273 OA
ATOM     19  N   THR A   9     -12.998  17.549  16.501  0.00  0.00    -0.295 N 
ATOM     20  H   THR A   9     -12.989  17.973  15.551  0.00  0.00    +0.150 HD
BRANCH  19  21
ATOM     21  CA  THR A   9     -14.176  16.823  16.930  0.00  0.00    +0.176 C 
BRANCH  21  22
ATOM     22  C   THR A   9     -13.957  15.320  16.791  0.00  0.00    +0.243 C 
ATOM     23  N   VAL A  10     -14.294  14.563  17.826  0.00  0.00    -0.298 N 
ATOM     24  H   VAL A  10     -14.710  15.001  18.672  0.00  0.00    +0.150 HD
ATOM     25  O   THR A   9     -13.468  14.859  15.766  0.00  0.00    -0.273 OA
BRANCH  23  26
ATOM     26  CA  VAL A  10     -14.085  13.115  17.786  0.00  0.00    +0.137 C 
BRANCH  26  27
ATOM     27  CB  VAL A  10     -12.921  12.617  18.679  0.00  0.00    +0.026 C 
ATOM     28  CG2 VAL A  10     -11.816  13.613  18.731  0.00  0.00    +0.002 C 
ATOM     29  CG1 VAL A  10     -12.427  11.243  18.185  0.00  0.00    +0.002 C 
ENDBRANCH  26  27
BRANCH  26  30
ATOM     30  C   VAL A  10     -15.325  12.452  18.345  0.00  0.00    +0.227 C 
ATOM     31  O   VAL A  10     -15.701  12.690  19.489  0.00  0.00    -0.286 OA
ENDBRANCH  26  30
ENDBRANCH  23  26
ENDBRANCH  21  22
BRANCH  21  32
ATOM     32  CB  THR A   9     -15.321  17.288  16.058  0.00  0.00    +0.137 C 
ATOM     33  CG2 THR A   9     -16.603  16.400  16.245  0.00  0.00    +0.034 C 
BRANCH  32  34
ATOM     34  OG1 THR A   9     -15.563  18.671  16.382  0.00  0.00    -0.382 OA
ATOM     35  HG1 THR A   9     -14.746  19.199  16.199  0.00  0.00    +0.210 HD
ENDBRANCH  32  34
ENDBRANCH  21  32
ENDBRANCH  19  21
ENDBRANCH  16  17
BRANCH  16  36
ATOM     36  C   UNK A   8      -9.953  17.281  15.866  0.00  0.00    +0.142 C 
BRANCH  36  37
ATOM     37  C   UNK A   8      -8.479  17.585  15.738  0.00  0.00    +0.357 C 
ATOM     38  O   UNK A   8      -8.136  18.746  15.430  0.00  0.00    -0.247 OA
BRANCH  37  39
ATOM     39  O   UNK A   8      -7.660  16.659  15.939  0.00  0.00    -0.265 OA
ATOM     40  O   UNK A   8      -6.368  16.614  16.354  0.00  0.00    +0.031 OA
ENDBRANCH  37  39
ENDBRANCH  36  37
ENDBRANCH  16  36
ENDBRANCH  13  16
ENDBRANCH  11  12
BRANCH  11  41
ATOM     41  CB  ASP A   7      -7.157  20.515  18.030  0.00  0.00    +0.143 C 
BRANCH  41  42
ATOM     42  CG  ASP A   7      -6.034  21.050  18.885  0.00  0.00    +0.367 C 
ATOM     43  OD2 ASP A   7      -6.288  21.955  19.732  0.00  0.00    -0.246 OA
ATOM     44  OD1 ASP A   7      -4.882  20.565  18.710  0.00  0.00    -0.246 OA
ENDBRANCH  41  42
ENDBRANCH  11  41
ENDBRANCH   9  11
ENDBRANCH   5   7
ENDBRANCH   3   5
BRANCH   1  45
ATOM     45  CA  GLY A   5      -9.501  21.675  24.993  0.00  0.00    +0.176 C 
BRANCH  45  47
ATOM     46  C   THR A   4     -11.109  23.379  24.244  0.00  0.00    +0.243 C 
ATOM     47  N   GLY A   5     -10.842  22.273  24.948  0.00  0.00    -0.295 N 
ATOM     48  H   GLY A   5     -11.611  21.821  25.482  0.00  0.00    +0.150 HD
ATOM     49  O   THR A   4     -10.242  23.997  23.588  0.00  0.00    -0.273 OA
BRANCH  46  50
ATOM     50  CA  THR A   4     -12.579  23.872  24.248  0.00  0.00    +0.176 C 
BRANCH  50  52
ATOM     51  C   ASP A   3     -13.735  21.745  23.952  0.00  0.00    +0.241 C 
ATOM     52  N   THR A   4     -13.542  22.849  24.673  0.00  0.00    -0.295 N 
ATOM     53  H   THR A   4     -14.082  22.988  25.551  0.00  0.00    +0.150 HD
ATOM     54  O   ASP A   3     -13.077  21.483  22.943  0.00  0.00    -0.273 OA
BRANCH  51  55
ATOM     55  CA  ASP A   3     -14.788  20.763  24.458  0.00  0.00    +0.160 C 
BRANCH  55  58
ATOM     56  C   LEU A   2     -17.164  21.168  24.696  0.00  0.00    +0.241 C 
ATOM     57  O   LEU A   2     -17.052  21.426  25.910  0.00  0.00    -0.273 OA
ATOM     58  N   ASP A   3     -16.116  20.996  23.900  0.00  0.00    -0.297 N 
ATOM     59  H   ASP A   3     -16.243  21.028  22.868  0.00  0.00    +0.150 HD
BRANCH  56  60
ATOM     60  CA  LEU A   2     -18.538  21.060  24.034  0.00  0.00    +0.149 C 
BRANCH  60  62
ATOM     61  C   LEU A   1     -18.795  18.654  24.239  0.00  0.00    +0.238 C 
ATOM     62  N   LEU A   2     -19.226  19.875  24.579  0.00  0.00    -0.297 N 
ATOM     63  H   LEU A   2     -20.037  19.987  25.220  0.00  0.00    +0.150 HD
ATOM     64  O   LEU A   1     -17.971  18.468  23.321  0.00  0.00    -0.274 OA
BRANCH  61  65
ATOM     65  CA  LEU A   1     -19.369  17.469  25.011  0.00  0.00    +0.145 C 
BRANCH  65  66
ATOM     66  N   LEU A   1     -19.953  16.522  24.089  0.00  0.00    -0.238 NA
ATOM     67  H   LEU A   1     -19.336  15.788  23.686  0.00  0.00    +0.142 HD
ENDBRANCH  65  66
BRANCH  65  68
ATOM     68  CB  LEU A   1     -18.257  16.751  25.804  0.00  0.00    +0.026 C 
BRANCH  68  69
ATOM     69  CG  LEU A   1     -17.593  17.381  27.022  0.00  0.00    +0.002 C 
ATOM     70  CD2 LEU A   1     -18.544  17.410  28.221  0.00  0.00    +0.000 C 
ATOM     71  CD1 LEU A   1     -16.305  16.597  27.350  0.00  0.00    +0.000 C 
ENDBRANCH  68  69
ENDBRANCH  65  68
ENDBRANCH  61  65
ENDBRANCH  60  62
BRANCH  60  72
ATOM     72  CB  LEU A   2     -19.347  22.335  24.242  0.00  0.00    +0.029 C 
BRANCH  72  73
ATOM     73  CG  LEU A   2     -20.783  22.348  23.704  0.00  0.00    +0.002 C 
ATOM     74  CD2 LEU A   2     -21.438  23.666  24.107  0.00  0.00    +0.000 C 
ATOM     75  CD1 LEU A   2     -20.803  22.186  22.225  0.00  0.00    +0.000 C 
ENDBRANCH  72  73
ENDBRANCH  60  72
ENDBRANCH  56  60
ENDBRANCH  55  58
BRANCH  55  76
ATOM     76  CB  ASP A   3     -14.359  19.323  24.155  0.00  0.00    +0.143 C 
BRANCH  76  77
ATOM     77  CG  ASP A   3     -13.102  18.907  24.908  0.00  0.00    +0.367 C 
ATOM     78  OD2 ASP A   3     -12.439  19.791  25.469  0.00  0.00    -0.246 OA
ATOM     79  OD1 ASP A   3     -12.805  17.691  24.975  0.00  0.00    -0.246 OA
ENDBRANCH  76  77
ENDBRANCH  55  76
ENDBRANCH  51  55
ENDBRANCH  50  52
BRANCH  50  80
ATOM     80  CB  THR A   4     -12.708  25.180  25.071  0.00  0.00    +0.137 C 
ATOM     81  CG2 THR A   4     -14.118  25.767  24.966  0.00  0.00    +0.034 C 
BRANCH  80  82
ATOM     82  OG1 THR A   4     -12.400  24.934  26.454  0.00  0.00    -0.382 OA
ATOM     83  HG1 THR A   4     -11.473  24.595  26.529  0.00  0.00    +0.210 HD
ENDBRANCH  80  82
ENDBRANCH  50  80
ENDBRANCH  46  50
ENDBRANCH  45  47
ENDBRANCH   1  45
TORSDOF 36
REMARK  Name = ../refined-set-2016/4ll3/4ll3_pocket.pdb
REMARK  228 active torsions:
REMARK  status: ('A' for Active; 'I' for Inactive)
REMARK    1  A    between atoms: _1  and  _3
REMARK    2  A    between atoms: _3  and  _4
REMARK    3  A    between atoms: _3  and  _6
REMARK    4  A    between atoms: _6  and  _7
REMARK    5  A    between atoms: _7  and  _8
REMARK    6  A    between atoms: _8  and  _9
REMARK    7  A    between atoms: _18  and  _20
REMARK    8  A    between atoms: _20  and  _21
REMARK    9  A    between atoms: _20  and  _23
REMARK   10  A    between atoms: _23  and  _24
REMARK   11  A    between atoms: _27  and  _29
REMARK   12  A    between atoms: _29  and  _30
REMARK   13  A    between atoms: _29  and  _32
REMARK   14  A    between atoms: _32  and  _33
REMARK   15  A    between atoms: _36  and  _38
REMARK   16  A    between atoms: _38  and  _39
REMARK   17  A    between atoms: _38  and  _41
REMARK   18  A    between atoms: _41  and  _42
REMARK   19  A    between atoms: _45  and  _47
REMARK   20  A    between atoms: _47  and  _48
REMARK   21  A    between atoms: _47  and  _50
REMARK   22  A    between atoms: _50  and  _51
REMARK   23  A    between atoms: _54  and  _56
REMARK   24  A    between atoms: _56  and  _57
REMARK   25  A    between atoms: _59  and  _61
REMARK   26  A    between atoms: _61  and  _62
REMARK   27  A    between atoms: _65  and  _67
REMARK   28  A    between atoms: _67  and  _68
REMARK   29  A    between atoms: _67  and  _70
REMARK   30  A    between atoms: _70  and  _71
REMARK   31  A    between atoms: _74  and  _76
REMARK   32  A    between atoms: _76  and  _77
REMARK   33  A    between atoms: _76  and  _79
REMARK   34  A    between atoms: _79  and  _80
REMARK   35  A    between atoms: _80  and  _82
REMARK   36  A    between atoms: _83  and  _85
REMARK   37  A    between atoms: _85  and  _86
REMARK   38  A    between atoms: _85  and  _88
REMARK   39  A    between atoms: _88  and  _89
REMARK   40  A    between atoms: _92  and  _94
REMARK   41  A    between atoms: _94  and  _95
REMARK   42  A    between atoms: _94  and  _97
REMARK   43  A    between atoms: _100  and  _102
REMARK   44  A    between atoms: _102  and  _103
REMARK   45  A    between atoms: _102  and  _105
REMARK   46  A    between atoms: _105  and  _106
REMARK   47  A    between atoms: _106  and  _107
REMARK   48  A    between atoms: _107  and  _108
REMARK   49  A    between atoms: _108  and  _109
REMARK   50  A    between atoms: _113  and  _115
REMARK   51  A    between atoms: _115  and  _116
REMARK   52  A    between atoms: _115  and  _118
REMARK   53  A    between atoms: _118  and  _119
REMARK   54  A    between atoms: _119  and  _120
REMARK   55  A    between atoms: _122  and  _124
REMARK   56  A    between atoms: _124  and  _125
REMARK   57  A    between atoms: _124  and  _127
REMARK   58  A    between atoms: _127  and  _128
REMARK   59  A    between atoms: _131  and  _133
REMARK   60  A    between atoms: _133  and  _134
REMARK   61  A    between atoms: _136  and  _138
REMARK   62  A    between atoms: _138  and  _139
REMARK   63  A    between atoms: _141  and  _143
REMARK   64  A    between atoms: _143  and  _144
REMARK   65  A    between atoms: _143  and  _146
REMARK   66  A    between atoms: _146  and  _147
REMARK   67  A    between atoms: _150  and  _152
REMARK   68  A    between atoms: _152  and  _153
REMARK   69  A    between atoms: _155  and  _157
REMARK   70  A    between atoms: _157  and  _158
REMARK   71  A    between atoms: _160  and  _162
REMARK   72  A    between atoms: _162  and  _163
REMARK   73  A    between atoms: _162  and  _165
REMARK   74  A    between atoms: _165  and  _166
REMARK   75  A    between atoms: _172  and  _174
REMARK   76  A    between atoms: _174  and  _175
REMARK   77  A    between atoms: _174  and  _177
REMARK   78  A    between atoms: _177  and  _178
REMARK   79  A    between atoms: _181  and  _183
REMARK   80  A    between atoms: _183  and  _184
REMARK   81  A    between atoms: _183  and  _186
REMARK   82  A    between atoms: _189  and  _191
REMARK   83  A    between atoms: _191  and  _192
REMARK   84  A    between atoms: _191  and  _194
REMARK   85  A    between atoms: _194  and  _195
REMARK   86  A    between atoms: _199  and  _200
REMARK   87  A    between atoms: _205  and  _207
REMARK   88  A    between atoms: _207  and  _208
REMARK   89  A    between atoms: _207  and  _210
REMARK   90  A    between atoms: _210  and  _211
REMARK   91  A    between atoms: _215  and  _216
REMARK   92  A    between atoms: _221  and  _223
REMARK   93  A    between atoms: _223  and  _224
REMARK   94  A    between atoms: _223  and  _226
REMARK   95  A    between atoms: _229  and  _231
REMARK   96  A    between atoms: _231  and  _232
REMARK   97  A    between atoms: _231  and  _234
REMARK   98  A    between atoms: _234  and  _235
REMARK   99  A    between atoms: _240  and  _242
REMARK  100  A    between atoms: _242  and  _243
REMARK  101  A    between atoms: _242  and  _245
REMARK  102  A    between atoms: _245  and  _246
REMARK  103  A    between atoms: _249  and  _251
REMARK  104  A    between atoms: _251  and  _252
REMARK  105  A    between atoms: _251  and  _254
REMARK  106  A    between atoms: _254  and  _255
REMARK  107  A    between atoms: _258  and  _260
REMARK  108  A    between atoms: _260  and  _261
REMARK  109  A    between atoms: _263  and  _265
REMARK  110  A    between atoms: _265  and  _266
REMARK  111  A    between atoms: _265  and  _268
REMARK  112  A    between atoms: _268  and  _269
REMARK  113  A    between atoms: _269  and  _270
REMARK  114  A    between atoms: _270  and  _271
REMARK  115  A    between atoms: _280  and  _282
REMARK  116  A    between atoms: _282  and  _283
REMARK  117  A    between atoms: _282  and  _285
REMARK  118  A    between atoms: _285  and  _286
REMARK  119  A    between atoms: _291  and  _293
REMARK  120  A    between atoms: _293  and  _294
REMARK  121  A    between atoms: _293  and  _296
REMARK  122  A    between atoms: _296  and  _297
REMARK  123  A    between atoms: _297  and  _298
REMARK  124  A    between atoms: _298  and  _299
REMARK  125  A    between atoms: _308  and  _310
REMARK  126  A    between atoms: _310  and  _311
REMARK  127  A    between atoms: _310  and  _313
REMARK  128  A    between atoms: _313  and  _314
REMARK  129  A    between atoms: _317  and  _319
REMARK  130  A    between atoms: _319  and  _320
REMARK  131  A    between atoms: _319  and  _322
REMARK  132  A    between atoms: _322  and  _323
REMARK  133  A    between atoms: _326  and  _328
REMARK  134  A    between atoms: _328  and  _329
REMARK  135  A    between atoms: _328  and  _331
REMARK  136  A    between atoms: _331  and  _332
REMARK  137  A    between atoms: _335  and  _337
REMARK  138  A    between atoms: _337  and  _338
REMARK  139  A    between atoms: _337  and  _340
REMARK  140  A    between atoms: _340  and  _341
REMARK  141  A    between atoms: _344  and  _346
REMARK  142  A    between atoms: _346  and  _347
REMARK  143  A    between atoms: _349  and  _351
REMARK  144  A    between atoms: _351  and  _352
REMARK  145  A    between atoms: _355  and  _357
REMARK  146  A    between atoms: _357  and  _358
REMARK  147  A    between atoms: _357  and  _360
REMARK  148  A    between atoms: _360  and  _361
REMARK  149  A    between atoms: _364  and  _366
REMARK  150  A    between atoms: _366  and  _367
REMARK  151  A    between atoms: _366  and  _369
REMARK  152  A    between atoms: _369  and  _370
REMARK  153  A    between atoms: _370  and  _372
REMARK  154  A    between atoms: _373  and  _375
REMARK  155  A    between atoms: _375  and  _376
REMARK  156  A    between atoms: _375  and  _378
REMARK  157  A    between atoms: _378  and  _379
REMARK  158  A    between atoms: _382  and  _384
REMARK  159  A    between atoms: _384  and  _385
REMARK  160  A    between atoms: _384  and  _387
REMARK  161  A    between atoms: _390  and  _392
REMARK  162  A    between atoms: _392  and  _393
REMARK  163  A    between atoms: _392  and  _395
REMARK  164  A    between atoms: _395  and  _396
REMARK  165  A    between atoms: _396  and  _397
REMARK  166  A    between atoms: _397  and  _398
REMARK  167  A    between atoms: _398  and  _399
REMARK  168  A    between atoms: _403  and  _405
REMARK  169  A    between atoms: _405  and  _406
REMARK  170  A    between atoms: _405  and  _408
REMARK  171  A    between atoms: _408  and  _409
REMARK  172  A    between atoms: _409  and  _410
REMARK  173  A    between atoms: _412  and  _414
REMARK  174  A    between atoms: _414  and  _415
REMARK  175  A    between atoms: _414  and  _417
REMARK  176  A    between atoms: _417  and  _418
REMARK  177  A    between atoms: _421  and  _423
REMARK  178  A    between atoms: _423  and  _424
REMARK  179  A    between atoms: _426  and  _428
REMARK  180  A    between atoms: _428  and  _429
REMARK  181  A    between atoms: _431  and  _433
REMARK  182  A    between atoms: _433  and  _434
REMARK  183  A    between atoms: _433  and  _436
REMARK  184  A    between atoms: _436  and  _437
REMARK  185  A    between atoms: _440  and  _442
REMARK  186  A    between atoms: _442  and  _443
REMARK  187  A    between atoms: _445  and  _447
REMARK  188  A    between atoms: _447  and  _448
REMARK  189  A    between atoms: _450  and  _452
REMARK  190  A    between atoms: _452  and  _453
REMARK  191  A    between atoms: _452  and  _455
REMARK  192  A    between atoms: _455  and  _456
REMARK  193  A    between atoms: _459  and  _461
REMARK  194  A    between atoms: _461  and  _462
REMARK  195  A    between atoms: _461  and  _464
REMARK  196  A    between atoms: _464  and  _465
REMARK  197  A    between atoms: _468  and  _470
REMARK  198  A    between atoms: _470  and  _471
REMARK  199  A    between atoms: _470  and  _473
REMARK  200  A    between atoms: _473  and  _474
REMARK  201  A    between atoms: _478  and  _479
REMARK  202  A    between atoms: _484  and  _486
REMARK  203  A    between atoms: _486  and  _487
REMARK  204  A    between atoms: _486  and  _489
REMARK  205  A    between atoms: _492  and  _494
REMARK  206  A    between atoms: _494  and  _495
REMARK  207  A    between atoms: _494  and  _497
REMARK  208  A    between atoms: _497  and  _498
REMARK  209  A    between atoms: _503  and  _505
REMARK  210  A    between atoms: _505  and  _506
REMARK  211  A    between atoms: _505  and  _508
REMARK  212  A    between atoms: _508  and  _509
REMARK  213  A    between atoms: _512  and  _514
REMARK  214  A    between atoms: _514  and  _515
REMARK  215  A    between atoms: _514  and  _517
REMARK  216  A    between atoms: _517  and  _518
REMARK  217  A    between atoms: _521  and  _523
REMARK  218  A    between atoms: _523  and  _524
REMARK  219  A    between atoms: _526  and  _528
REMARK  220  A    between atoms: _528  and  _529
REMARK  221  A    between atoms: _528  and  _531
REMARK  222  A    between atoms: _531  and  _532
REMARK  223  A    between atoms: _532  and  _533
REMARK  224  A    between atoms: _533  and  _534
REMARK  225  A    between atoms: _543  and  _545
REMARK  226  A    between atoms: _545  and  _546
REMARK  227  A    between atoms: _545  and  _548
REMARK  228  A    between atoms: _548  and  _549
REMARK                            x       y       z     vdW  Elec       q    Type
REMARK                         _______ _______ _______ _____ _____    ______ ____
ROOT
ATOM      1  C   GLY A   5      -3.918  12.531  25.907  0.00  0.00    +0.243 C 
ATOM      2  N   ILE A   6      -4.625  12.695  27.014  0.00  0.00    -0.297 N 
ATOM      3  H   ILE A   6      -5.573  13.117  26.947  0.00  0.00    +0.150 HD
ATOM      4  O   GLY A   5      -2.763  12.092  25.881  0.00  0.00    -0.273 OA
ENDROOT
BRANCH   2   5
ATOM      5  CA  ILE A   6      -4.126  12.310  28.302  0.00  0.00    +0.149 C 
BRANCH   5   6
ATOM      6  C   ILE A   6      -4.157  10.769  28.258  0.00  0.00    +0.241 C 
ATOM      7  N   GLY A   7      -3.059  10.115  28.564  0.00  0.00    -0.295 N 
ATOM      8  H   GLY A   7      -2.196  10.632  28.829  0.00  0.00    +0.150 HD
ATOM      9  O   ILE A   6      -5.177  10.178  27.908  0.00  0.00    -0.273 OA
BRANCH   7  10
ATOM     10  CA  GLY A   7      -3.063   8.638  28.528  0.00  0.00    +0.176 C 
BRANCH  10  11
ATOM     11  C   GLY A   7      -2.517   8.020  27.246  0.00  0.00    +0.243 C 
ATOM     12  O   GLY A   7      -2.244   6.819  27.189  0.00  0.00    -0.273 OA
ATOM     13  N   GLY A   8      -2.354   8.846  26.223  0.00  0.00    -0.295 N 
ATOM     14  H   GLY A   8      -2.663   9.835  26.312  0.00  0.00    +0.150 HD
BRANCH  13  15
ATOM     15  CA  GLY A   8      -1.758   8.400  24.992  0.00  0.00    +0.176 C 
BRANCH  15  16
ATOM     16  C   GLY A   8      -2.633   8.670  23.797  0.00  0.00    +0.243 C 
ATOM     17  O   GLY A   8      -3.435   9.603  23.795  0.00  0.00    -0.273 OA
ATOM     18  N   PHE A   9      -2.523   7.787  22.816  0.00  0.00    -0.297 N 
ATOM     19  H   PHE A   9      -2.008   6.900  22.988  0.00  0.00    +0.150 HD
BRANCH  18  20
ATOM     20  CA  PHE A   9      -3.102   8.026  21.509  0.00  0.00    +0.153 C 
BRANCH  20  21
ATOM     21  C   PHE A   9      -4.199   7.021  21.130  0.00  0.00    +0.241 C 
ATOM     22  O   PHE A   9      -4.223   5.889  21.625  0.00  0.00    -0.273 OA
ATOM     23  N   ILE A  10      -5.109   7.449  20.252  0.00  0.00    -0.298 N 
ATOM     24  H   ILE A  10      -5.163   8.463  20.029  0.00  0.00    +0.150 HD
BRANCH  23  25
ATOM     25  CA  ILE A  10      -6.039   6.515  19.592  0.00  0.00    +0.137 C 
BRANCH  25  26
ATOM     26  C   ILE A  10      -5.997   6.672  18.080  0.00  0.00    +0.227 C 
ATOM     27  O   ILE A  10      -5.725   7.746  17.566  0.00  0.00    -0.286 OA
ENDBRANCH  25  26
BRANCH  25  28
ATOM     28  CB  ILE A  10      -7.504   6.637  20.080  0.00  0.00    +0.026 C 
ATOM     29  CG2 ILE A  10      -7.615   6.150  21.537  0.00  0.00    +0.002 C 
BRANCH  28  30
ATOM     30  CG1 ILE A  10      -8.066   8.055  19.829  0.00  0.00    +0.002 C 
ATOM     31  CD1 ILE A  10      -9.585   8.144  19.903  0.00  0.00    +0.000 C 
ENDBRANCH  28  30
ENDBRANCH  25  28
ENDBRANCH  23  25
ENDBRANCH  20  21
BRANCH  20  32
ATOM     32  CB  PHE A   9      -1.983   8.041  20.461  0.00  0.00    +0.055 C 
BRANCH  32  33
ATOM     33  CG  PHE A   9      -1.096   9.269  20.526  0.00  0.00    -0.020 A 
ATOM     34  CD2 PHE A   9      -0.148   9.419  21.542  0.00  0.00    -0.004 A 
ATOM     35  CE2 PHE A   9       0.669  10.554  21.604  0.00  0.00    -0.000 A 
ATOM     36  CZ  PHE A   9       0.551  11.551  20.635  0.00  0.00    -0.000 A 
ATOM     37  CE1 PHE A   9      -0.391  11.413  19.607  0.00  0.00    -0.000 A 
ATOM     38  CD1 PHE A   9      -1.205  10.274  19.559  0.00  0.00    -0.004 A 
ENDBRANCH  32  33
ENDBRANCH  20  32
ENDBRANCH  18  20
ENDBRANCH  15  16
ENDBRANCH  13  15
ENDBRANCH  10  11
ENDBRANCH   7  10
ENDBRANCH   5   6
BRANCH   5  39
ATOM     39  CB  ILE A   6      -5.053  12.912  29.397  0.00  0.00    +0.027 C 
ATOM     40  CG2 ILE A   6      -5.800  11.845  30.152  0.00  0.00    +0.002 C 
BRANCH  39  41
ATOM     41  CG1 ILE A   6      -4.281  13.852  30.319  0.00  0.00    +0.002 C 
ATOM     42  CD1 ILE A   6      -5.157  14.665  31.241  0.00  0.00    +0.000 C 
ENDBRANCH  39  41
ENDBRANCH   5  39
ENDBRANCH   2   5
BRANCH   1  43
ATOM     43  CA  GLY A   5      -4.623  12.928  24.659  0.00  0.00    +0.176 C 
BRANCH  43  45
ATOM     44  C   GLY A   4      -3.968  12.821  22.372  0.00  0.00    +0.243 C 
ATOM     45  N   GLY A   5      -4.158  12.189  23.520  0.00  0.00    -0.295 N 
ATOM     46  H   GLY A   5      -3.972  11.168  23.595  0.00  0.00    +0.150 HD
ATOM     47  O   GLY A   4      -4.295  14.001  22.190  0.00  0.00    -0.273 OA
BRANCH  44  48
ATOM     48  CA  GLY A   4      -3.287  12.017  21.294  0.00  0.00    +0.176 C 
BRANCH  48  50
ATOM     49  C   ILE A   3      -4.407  11.345  19.270  0.00  0.00    +0.241 C 
ATOM     50  N   GLY A   4      -3.776  12.288  19.957  0.00  0.00    -0.295 N 
ATOM     51  H   GLY A   4      -3.631  13.227  19.534  0.00  0.00    +0.150 HD
ATOM     52  O   ILE A   3      -4.658  10.230  19.731  0.00  0.00    -0.273 OA
BRANCH  49  53
ATOM     53  CA  ILE A   3      -4.807  11.709  17.856  0.00  0.00    +0.149 C 
BRANCH  53  55
ATOM     54  C   MET A   2      -3.977  10.555  15.895  0.00  0.00    +0.241 C 
ATOM     55  N   ILE A   3      -4.711  10.541  17.002  0.00  0.00    -0.297 N 
ATOM     56  H   ILE A   3      -5.227   9.676  17.261  0.00  0.00    +0.150 HD
ATOM     57  O   MET A   2      -3.380  11.561  15.493  0.00  0.00    -0.273 OA
BRANCH  54  58
ATOM     58  CA  MET A   2      -3.919   9.255  15.107  0.00  0.00    +0.149 C 
BRANCH  58  60
ATOM     59  C   LYS A   1      -5.107   8.878  13.008  0.00  0.00    +0.238 C 
ATOM     60  N   MET A   2      -4.177   9.525  13.699  0.00  0.00    -0.297 N 
ATOM     61  H   MET A   2      -3.611  10.252  13.217  0.00  0.00    +0.150 HD
ATOM     62  O   LYS A   1      -5.811   7.991  13.497  0.00  0.00    -0.274 OA
BRANCH  59  63
ATOM     63  CA  LYS A   1      -5.256   9.285  11.537  0.00  0.00    +0.145 C 
BRANCH  63  64
ATOM     64  N   LYS A   1      -5.874   8.188  10.806  0.00  0.00    -0.238 NA
ATOM     65  H   LYS A   1      -6.413   7.471  11.332  0.00  0.00    +0.142 HD
ENDBRANCH  63  64
BRANCH  63  66
ATOM     66  CB  LYS A   1      -6.125  10.548  11.401  0.00  0.00    +0.026 C 
BRANCH  66  67
ATOM     67  CG  LYS A   1      -5.404  11.873  11.625  0.00  0.00    -0.000 C 
BRANCH  67  68
ATOM     68  CD  LYS A   1      -6.408  12.983  11.961  0.00  0.00    -0.024 C 
BRANCH  68  69
ATOM     69  CE  LYS A   1      -5.823  14.042  12.907  0.00  0.00    -0.086 C 
BRANCH  69  70
ATOM     70  NZ  LYS A   1      -4.580  14.718  12.396  0.00  0.00    +0.380 N 
ATOM     71  HZ1 LYS A   1      -4.254  15.416  13.095  0.00  0.00    -0.089 HD
ATOM     72  HZ2 LYS A   1      -3.838  14.006  12.243  0.00  0.00    -0.089 HD
ATOM     73  HZ3 LYS A   1      -4.792  15.198  11.498  0.00  0.00    -0.089 HD
ENDBRANCH  69  70
ENDBRANCH  68  69
ENDBRANCH  67  68
ENDBRANCH  66  67
ENDBRANCH  63  66
ENDBRANCH  59  63
ENDBRANCH  58  60
BRANCH  58  74
ATOM     74  CB  MET A   2      -2.548   8.617  15.274  0.00  0.00    +0.041 C 
BRANCH  74  75
ATOM     75  CG  MET A   2      -2.487   7.660  16.428  0.00  0.00    +0.060 C 
BRANCH  75  76
ATOM     76  SD  MET A   2      -1.493   6.230  16.002  0.00  0.00    -0.139 S 
ATOM     77  CE  MET A   2      -2.213   5.770  14.415  0.00  0.00    +0.069 C 
ENDBRANCH  75  76
ENDBRANCH  74  75
ENDBRANCH  58  74
ENDBRANCH  54  58
ENDBRANCH  53  55
BRANCH  53  78
ATOM     78  CB  ILE A   3      -6.226  12.372  17.842  0.00  0.00    +0.027 C 
ATOM     79  CG2 ILE A   3      -6.545  12.933  16.447  0.00  0.00    +0.002 C 
BRANCH  78  80
ATOM     80  CG1 ILE A   3      -7.306  11.390  18.310  0.00  0.00    +0.002 C 
ATOM     81  CD1 ILE A   3      -8.640  12.034  18.542  0.00  0.00    +0.000 C 
ENDBRANCH  78  80
ENDBRANCH  53  78
ENDBRANCH  49  53
ENDBRANCH  48  50
ENDBRANCH  44  48
ENDBRANCH  43  45
ENDBRANCH   1  43
TORSDOF 36
REMARK  Name = ../refined-set-2016/4ll3/4ll3_pocket.pdb
REMARK  228 active torsions:
REMARK  status: ('A' for Active; 'I' for Inactive)
REMARK    1  A    between atoms: _1  and  _3
REMARK    2  A    between atoms: _3  and  _4
REMARK    3  A    between atoms: _3  and  _6
REMARK    4  A    between atoms: _6  and  _7
REMARK    5  A    between atoms: _7  and  _8
REMARK    6  A    between atoms: _8  and  _9
REMARK    7  A    between atoms: _18  and  _20
REMARK    8  A    between atoms: _20  and  _21
REMARK    9  A    between atoms: _20  and  _23
REMARK   10  A    between atoms: _23  and  _24
REMARK   11  A    between atoms: _27  and  _29
REMARK   12  A    between atoms: _29  and  _30
REMARK   13  A    between atoms: _29  and  _32
REMARK   14  A    between atoms: _32  and  _33
REMARK   15  A    between atoms: _36  and  _38
REMARK   16  A    between atoms: _38  and  _39
REMARK   17  A    between atoms: _38  and  _41
REMARK   18  A    between atoms: _41  and  _42
REMARK   19  A    between atoms: _45  and  _47
REMARK   20  A    between atoms: _47  and  _48
REMARK   21  A    between atoms: _47  and  _50
REMARK   22  A    between atoms: _50  and  _51
REMARK   23  A    between atoms: _54  and  _56
REMARK   24  A    between atoms: _56  and  _57
REMARK   25  A    between atoms: _59  and  _61
REMARK   26  A    between atoms: _61  and  _62
REMARK   27  A    between atoms: _65  and  _67
REMARK   28  A    between atoms: _67  and  _68
REMARK   29  A    between atoms: _67  and  _70
REMARK   30  A    between atoms: _70  and  _71
REMARK   31  A    between atoms: _74  and  _76
REMARK   32  A    between atoms: _76  and  _77
REMARK   33  A    between atoms: _76  and  _79
REMARK   34  A    between atoms: _79  and  _80
REMARK   35  A    between atoms: _80  and  _82
REMARK   36  A    between atoms: _83  and  _85
REMARK   37  A    between atoms: _85  and  _86
REMARK   38  A    between atoms: _85  and  _88
REMARK   39  A    between atoms: _88  and  _89
REMARK   40  A    between atoms: _92  and  _94
REMARK   41  A    between atoms: _94  and  _95
REMARK   42  A    between atoms: _94  and  _97
REMARK   43  A    between atoms: _100  and  _102
REMARK   44  A    between atoms: _102  and  _103
REMARK   45  A    between atoms: _102  and  _105
REMARK   46  A    between atoms: _105  and  _106
REMARK   47  A    between atoms: _106  and  _107
REMARK   48  A    between atoms: _107  and  _108
REMARK   49  A    between atoms: _108  and  _109
REMARK   50  A    between atoms: _113  and  _115
REMARK   51  A    between atoms: _115  and  _116
REMARK   52  A    between atoms: _115  and  _118
REMARK   53  A    between atoms: _118  and  _119
REMARK   54  A    between atoms: _119  and  _120
REMARK   55  A    between atoms: _122  and  _124
REMARK   56  A    between atoms: _124  and  _125
REMARK   57  A    between atoms: _124  and  _127
REMARK   58  A    between atoms: _127  and  _128
REMARK   59  A    between atoms: _131  and  _133
REMARK   60  A    between atoms: _133  and  _134
REMARK   61  A    between atoms: _136  and  _138
REMARK   62  A    between atoms: _138  and  _139
REMARK   63  A    between atoms: _141  and  _143
REMARK   64  A    between atoms: _143  and  _144
REMARK   65  A    between atoms: _143  and  _146
REMARK   66  A    between atoms: _146  and  _147
REMARK   67  A    between atoms: _150  and  _152
REMARK   68  A    between atoms: _152  and  _153
REMARK   69  A    between atoms: _155  and  _157
REMARK   70  A    between atoms: _157  and  _158
REMARK   71  A    between atoms: _160  and  _162
REMARK   72  A    between atoms: _162  and  _163
REMARK   73  A    between atoms: _162  and  _165
REMARK   74  A    between atoms: _165  and  _166
REMARK   75  A    between atoms: _172  and  _174
REMARK   76  A    between atoms: _174  and  _175
REMARK   77  A    between atoms: _174  and  _177
REMARK   78  A    between atoms: _177  and  _178
REMARK   79  A    between atoms: _181  and  _183
REMARK   80  A    between atoms: _183  and  _184
REMARK   81  A    between atoms: _183  and  _186
REMARK   82  A    between atoms: _189  and  _191
REMARK   83  A    between atoms: _191  and  _192
REMARK   84  A    between atoms: _191  and  _194
REMARK   85  A    between atoms: _194  and  _195
REMARK   86  A    between atoms: _199  and  _200
REMARK   87  A    between atoms: _205  and  _207
REMARK   88  A    between atoms: _207  and  _208
REMARK   89  A    between atoms: _207  and  _210
REMARK   90  A    between atoms: _210  and  _211
REMARK   91  A    between atoms: _215  and  _216
REMARK   92  A    between atoms: _221  and  _223
REMARK   93  A    between atoms: _223  and  _224
REMARK   94  A    between atoms: _223  and  _226
REMARK   95  A    between atoms: _229  and  _231
REMARK   96  A    between atoms: _231  and  _232
REMARK   97  A    between atoms: _231  and  _234
REMARK   98  A    between atoms: _234  and  _235
REMARK   99  A    between atoms: _240  and  _242
REMARK  100  A    between atoms: _242  and  _243
REMARK  101  A    between atoms: _242  and  _245
REMARK  102  A    between atoms: _245  and  _246
REMARK  103  A    between atoms: _249  and  _251
REMARK  104  A    between atoms: _251  and  _252
REMARK  105  A    between atoms: _251  and  _254
REMARK  106  A    between atoms: _254  and  _255
REMARK  107  A    between atoms: _258  and  _260
REMARK  108  A    between atoms: _260  and  _261
REMARK  109  A    between atoms: _263  and  _265
REMARK  110  A    between atoms: _265  and  _266
REMARK  111  A    between atoms: _265  and  _268
REMARK  112  A    between atoms: _268  and  _269
REMARK  113  A    between atoms: _269  and  _270
REMARK  114  A    between atoms: _270  and  _271
REMARK  115  A    between atoms: _280  and  _282
REMARK  116  A    between atoms: _282  and  _283
REMARK  117  A    between atoms: _282  and  _285
REMARK  118  A    between atoms: _285  and  _286
REMARK  119  A    between atoms: _291  and  _293
REMARK  120  A    between atoms: _293  and  _294
REMARK  121  A    between atoms: _293  and  _296
REMARK  122  A    between atoms: _296  and  _297
REMARK  123  A    between atoms: _297  and  _298
REMARK  124  A    between atoms: _298  and  _299
REMARK  125  A    between atoms: _308  and  _310
REMARK  126  A    between atoms: _310  and  _311
REMARK  127  A    between atoms: _310  and  _313
REMARK  128  A    between atoms: _313  and  _314
REMARK  129  A    between atoms: _317  and  _319
REMARK  130  A    between atoms: _319  and  _320
REMARK  131  A    between atoms: _319  and  _322
REMARK  132  A    between atoms: _322  and  _323
REMARK  133  A    between atoms: _326  and  _328
REMARK  134  A    between atoms: _328  and  _329
REMARK  135  A    between atoms: _328  and  _331
REMARK  136  A    between atoms: _331  and  _332
REMARK  137  A    between atoms: _335  and  _337
REMARK  138  A    between atoms: _337  and  _338
REMARK  139  A    between atoms: _337  and  _340
REMARK  140  A    between atoms: _340  and  _341
REMARK  141  A    between atoms: _344  and  _346
REMARK  142  A    between atoms: _346  and  _347
REMARK  143  A    between atoms: _349  and  _351
REMARK  144  A    between atoms: _351  and  _352
REMARK  145  A    between atoms: _355  and  _357
REMARK  146  A    between atoms: _357  and  _358
REMARK  147  A    between atoms: _357  and  _360
REMARK  148  A    between atoms: _360  and  _361
REMARK  149  A    between atoms: _364  and  _366
REMARK  150  A    between atoms: _366  and  _367
REMARK  151  A    between atoms: _366  and  _369
REMARK  152  A    between atoms: _369  and  _370
REMARK  153  A    between atoms: _370  and  _372
REMARK  154  A    between atoms: _373  and  _375
REMARK  155  A    between atoms: _375  and  _376
REMARK  156  A    between atoms: _375  and  _378
REMARK  157  A    between atoms: _378  and  _379
REMARK  158  A    between atoms: _382  and  _384
REMARK  159  A    between atoms: _384  and  _385
REMARK  160  A    between atoms: _384  and  _387
REMARK  161  A    between atoms: _390  and  _392
REMARK  162  A    between atoms: _392  and  _393
REMARK  163  A    between atoms: _392  and  _395
REMARK  164  A    between atoms: _395  and  _396
REMARK  165  A    between atoms: _396  and  _397
REMARK  166  A    between atoms: _397  and  _398
REMARK  167  A    between atoms: _398  and  _399
REMARK  168  A    between atoms: _403  and  _405
REMARK  169  A    between atoms: _405  and  _406
REMARK  170  A    between atoms: _405  and  _408
REMARK  171  A    between atoms: _408  and  _409
REMARK  172  A    between atoms: _409  and  _410
REMARK  173  A    between atoms: _412  and  _414
REMARK  174  A    between atoms: _414  and  _415
REMARK  175  A    between atoms: _414  and  _417
REMARK  176  A    between atoms: _417  and  _418
REMARK  177  A    between atoms: _421  and  _423
REMARK  178  A    between atoms: _423  and  _424
REMARK  179  A    between atoms: _426  and  _428
REMARK  180  A    between atoms: _428  and  _429
REMARK  181  A    between atoms: _431  and  _433
REMARK  182  A    between atoms: _433  and  _434
REMARK  183  A    between atoms: _433  and  _436
REMARK  184  A    between atoms: _436  and  _437
REMARK  185  A    between atoms: _440  and  _442
REMARK  186  A    between atoms: _442  and  _443
REMARK  187  A    between atoms: _445  and  _447
REMARK  188  A    between atoms: _447  and  _448
REMARK  189  A    between atoms: _450  and  _452
REMARK  190  A    between atoms: _452  and  _453
REMARK  191  A    between atoms: _452  and  _455
REMARK  192  A    between atoms: _455  and  _456
REMARK  193  A    between atoms: _459  and  _461
REMARK  194  A    between atoms: _461  and  _462
REMARK  195  A    between atoms: _461  and  _464
REMARK  196  A    between atoms: _464  and  _465
REMARK  197  A    between atoms: _468  and  _470
REMARK  198  A    between atoms: _470  and  _471
REMARK  199  A    between atoms: _470  and  _473
REMARK  200  A    between atoms: _473  and  _474
REMARK  201  A    between atoms: _478  and  _479
REMARK  202  A    between atoms: _484  and  _486
REMARK  203  A    between atoms: _486  and  _487
REMARK  204  A    between atoms: _486  and  _489
REMARK  205  A    between atoms: _492  and  _494
REMARK  206  A    between atoms: _494  and  _495
REMARK  207  A    between atoms: _494  and  _497
REMARK  208  A    between atoms: _497  and  _498
REMARK  209  A    between atoms: _503  and  _505
REMARK  210  A    between atoms: _505  and  _506
REMARK  211  A    between atoms: _505  and  _508
REMARK  212  A    between atoms: _508  and  _509
REMARK  213  A    between atoms: _512  and  _514
REMARK  214  A    between atoms: _514  and  _515
REMARK  215  A    between atoms: _514  and  _517
REMARK  216  A    between atoms: _517  and  _518
REMARK  217  A    between atoms: _521  and  _523
REMARK  218  A    between atoms: _523  and  _524
REMARK  219  A    between atoms: _526  and  _528
REMARK  220  A    between atoms: _528  and  _529
REMARK  221  A    between atoms: _528  and  _531
REMARK  222  A    between atoms: _531  and  _532
REMARK  223  A    between atoms: _532  and  _533
REMARK  224  A    between atoms: _533  and  _534
REMARK  225  A    between atoms: _543  and  _545
REMARK  226  A    between atoms: _545  and  _546
REMARK  227  A    between atoms: _545  and  _548
REMARK  228  A    between atoms: _548  and  _549
REMARK                            x       y       z     vdW  Elec       q    Type
REMARK                         _______ _______ _______ _____ _____    ______ ____
ROOT
ATOM      1  CA  VAL A   1      -9.367   7.332  14.258  0.00  0.00    +0.133 C 
ENDROOT
BRANCH   1   2
ATOM      2  CB  VAL A   1      -9.644   8.758  14.807  0.00  0.00    +0.023 C 
ATOM      3  CG2 VAL A   1      -9.692   8.757  16.338  0.00  0.00    +0.002 C 
ATOM      4  CG1 VAL A   1      -8.633   9.783  14.277  0.00  0.00    +0.002 C 
ENDBRANCH   1   2
BRANCH   1   5
ATOM      5  N   VAL A   1      -8.053   6.834  14.624  0.00  0.00    -0.239 NA
ATOM      6  H   VAL A   1      -7.222   7.165  14.094  0.00  0.00    +0.142 HD
ENDBRANCH   1   5
BRANCH   1   7
ATOM      7  C   VAL A   1      -9.541   7.340  12.756  0.00  0.00    +0.224 C 
ATOM      8  O   VAL A   1      -8.571   7.229  12.007  0.00  0.00    -0.287 OA
ENDBRANCH   1   7
TORSDOF 3
REMARK  Name = ../refined-set-2016/4ll3/4ll3_pocket.pdb
REMARK  228 active torsions:
REMARK  status: ('A' for Active; 'I' for Inactive)
REMARK    1  A    between atoms: _1  and  _3
REMARK    2  A    between atoms: _3  and  _4
REMARK    3  A    between atoms: _3  and  _6
REMARK    4  A    between atoms: _6  and  _7
REMARK    5  A    between atoms: _7  and  _8
REMARK    6  A    between atoms: _8  and  _9
REMARK    7  A    between atoms: _18  and  _20
REMARK    8  A    between atoms: _20  and  _21
REMARK    9  A    between atoms: _20  and  _23
REMARK   10  A    between atoms: _23  and  _24
REMARK   11  A    between atoms: _27  and  _29
REMARK   12  A    between atoms: _29  and  _30
REMARK   13  A    between atoms: _29  and  _32
REMARK   14  A    between atoms: _32  and  _33
REMARK   15  A    between atoms: _36  and  _38
REMARK   16  A    between atoms: _38  and  _39
REMARK   17  A    between atoms: _38  and  _41
REMARK   18  A    between atoms: _41  and  _42
REMARK   19  A    between atoms: _45  and  _47
REMARK   20  A    between atoms: _47  and  _48
REMARK   21  A    between atoms: _47  and  _50
REMARK   22  A    between atoms: _50  and  _51
REMARK   23  A    between atoms: _54  and  _56
REMARK   24  A    between atoms: _56  and  _57
REMARK   25  A    between atoms: _59  and  _61
REMARK   26  A    between atoms: _61  and  _62
REMARK   27  A    between atoms: _65  and  _67
REMARK   28  A    between atoms: _67  and  _68
REMARK   29  A    between atoms: _67  and  _70
REMARK   30  A    between atoms: _70  and  _71
REMARK   31  A    between atoms: _74  and  _76
REMARK   32  A    between atoms: _76  and  _77
REMARK   33  A    between atoms: _76  and  _79
REMARK   34  A    between atoms: _79  and  _80
REMARK   35  A    between atoms: _80  and  _82
REMARK   36  A    between atoms: _83  and  _85
REMARK   37  A    between atoms: _85  and  _86
REMARK   38  A    between atoms: _85  and  _88
REMARK   39  A    between atoms: _88  and  _89
REMARK   40  A    between atoms: _92  and  _94
REMARK   41  A    between atoms: _94  and  _95
REMARK   42  A    between atoms: _94  and  _97
REMARK   43  A    between atoms: _100  and  _102
REMARK   44  A    between atoms: _102  and  _103
REMARK   45  A    between atoms: _102  and  _105
REMARK   46  A    between atoms: _105  and  _106
REMARK   47  A    between atoms: _106  and  _107
REMARK   48  A    between atoms: _107  and  _108
REMARK   49  A    between atoms: _108  and  _109
REMARK   50  A    between atoms: _113  and  _115
REMARK   51  A    between atoms: _115  and  _116
REMARK   52  A    between atoms: _115  and  _118
REMARK   53  A    between atoms: _118  and  _119
REMARK   54  A    between atoms: _119  and  _120
REMARK   55  A    between atoms: _122  and  _124
REMARK   56  A    between atoms: _124  and  _125
REMARK   57  A    between atoms: _124  and  _127
REMARK   58  A    between atoms: _127  and  _128
REMARK   59  A    between atoms: _131  and  _133
REMARK   60  A    between atoms: _133  and  _134
REMARK   61  A    between atoms: _136  and  _138
REMARK   62  A    between atoms: _138  and  _139
REMARK   63  A    between atoms: _141  and  _143
REMARK   64  A    between atoms: _143  and  _144
REMARK   65  A    between atoms: _143  and  _146
REMARK   66  A    between atoms: _146  and  _147
REMARK   67  A    between atoms: _150  and  _152
REMARK   68  A    between atoms: _152  and  _153
REMARK   69  A    between atoms: _155  and  _157
REMARK   70  A    between atoms: _157  and  _158
REMARK   71  A    between atoms: _160  and  _162
REMARK   72  A    between atoms: _162  and  _163
REMARK   73  A    between atoms: _162  and  _165
REMARK   74  A    between atoms: _165  and  _166
REMARK   75  A    between atoms: _172  and  _174
REMARK   76  A    between atoms: _174  and  _175
REMARK   77  A    between atoms: _174  and  _177
REMARK   78  A    between atoms: _177  and  _178
REMARK   79  A    between atoms: _181  and  _183
REMARK   80  A    between atoms: _183  and  _184
REMARK   81  A    between atoms: _183  and  _186
REMARK   82  A    between atoms: _189  and  _191
REMARK   83  A    between atoms: _191  and  _192
REMARK   84  A    between atoms: _191  and  _194
REMARK   85  A    between atoms: _194  and  _195
REMARK   86  A    between atoms: _199  and  _200
REMARK   87  A    between atoms: _205  and  _207
REMARK   88  A    between atoms: _207  and  _208
REMARK   89  A    between atoms: _207  and  _210
REMARK   90  A    between atoms: _210  and  _211
REMARK   91  A    between atoms: _215  and  _216
REMARK   92  A    between atoms: _221  and  _223
REMARK   93  A    between atoms: _223  and  _224
REMARK   94  A    between atoms: _223  and  _226
REMARK   95  A    between atoms: _229  and  _231
REMARK   96  A    between atoms: _231  and  _232
REMARK   97  A    between atoms: _231  and  _234
REMARK   98  A    between atoms: _234  and  _235
REMARK   99  A    between atoms: _240  and  _242
REMARK  100  A    between atoms: _242  and  _243
REMARK  101  A    between atoms: _242  and  _245
REMARK  102  A    between atoms: _245  and  _246
REMARK  103  A    between atoms: _249  and  _251
REMARK  104  A    between atoms: _251  and  _252
REMARK  105  A    between atoms: _251  and  _254
REMARK  106  A    between atoms: _254  and  _255
REMARK  107  A    between atoms: _258  and  _260
REMARK  108  A    between atoms: _260  and  _261
REMARK  109  A    between atoms: _263  and  _265
REMARK  110  A    between atoms: _265  and  _266
REMARK  111  A    between atoms: _265  and  _268
REMARK  112  A    between atoms: _268  and  _269
REMARK  113  A    between atoms: _269  and  _270
REMARK  114  A    between atoms: _270  and  _271
REMARK  115  A    between atoms: _280  and  _282
REMARK  116  A    between atoms: _282  and  _283
REMARK  117  A    between atoms: _282  and  _285
REMARK  118  A    between atoms: _285  and  _286
REMARK  119  A    between atoms: _291  and  _293
REMARK  120  A    between atoms: _293  and  _294
REMARK  121  A    between atoms: _293  and  _296
REMARK  122  A    between atoms: _296  and  _297
REMARK  123  A    between atoms: _297  and  _298
REMARK  124  A    between atoms: _298  and  _299
REMARK  125  A    between atoms: _308  and  _310
REMARK  126  A    between atoms: _310  and  _311
REMARK  127  A    between atoms: _310  and  _313
REMARK  128  A    between atoms: _313  and  _314
REMARK  129  A    between atoms: _317  and  _319
REMARK  130  A    between atoms: _319  and  _320
REMARK  131  A    between atoms: _319  and  _322
REMARK  132  A    between atoms: _322  and  _323
REMARK  133  A    between atoms: _326  and  _328
REMARK  134  A    between atoms: _328  and  _329
REMARK  135  A    between atoms: _328  and  _331
REMARK  136  A    between atoms: _331  and  _332
REMARK  137  A    between atoms: _335  and  _337
REMARK  138  A    between atoms: _337  and  _338
REMARK  139  A    between atoms: _337  and  _340
REMARK  140  A    between atoms: _340  and  _341
REMARK  141  A    between atoms: _344  and  _346
REMARK  142  A    between atoms: _346  and  _347
REMARK  143  A    between atoms: _349  and  _351
REMARK  144  A    between atoms: _351  and  _352
REMARK  145  A    between atoms: _355  and  _357
REMARK  146  A    between atoms: _357  and  _358
REMARK  147  A    between atoms: _357  and  _360
REMARK  148  A    between atoms: _360  and  _361
REMARK  149  A    between atoms: _364  and  _366
REMARK  150  A    between atoms: _366  and  _367
REMARK  151  A    between atoms: _366  and  _369
REMARK  152  A    between atoms: _369  and  _370
REMARK  153  A    between atoms: _370  and  _372
REMARK  154  A    between atoms: _373  and  _375
REMARK  155  A    between atoms: _375  and  _376
REMARK  156  A    between atoms: _375  and  _378
REMARK  157  A    between atoms: _378  and  _379
REMARK  158  A    between atoms: _382  and  _384
REMARK  159  A    between atoms: _384  and  _385
REMARK  160  A    between atoms: _384  and  _387
REMARK  161  A    between atoms: _390  and  _392
REMARK  162  A    between atoms: _392  and  _393
REMARK  163  A    between atoms: _392  and  _395
REMARK  164  A    between atoms: _395  and  _396
REMARK  165  A    between atoms: _396  and  _397
REMARK  166  A    between atoms: _397  and  _398
REMARK  167  A    between atoms: _398  and  _399
REMARK  168  A    between atoms: _403  and  _405
REMARK  169  A    between atoms: _405  and  _406
REMARK  170  A    between atoms: _405  and  _408
REMARK  171  A    between atoms: _408  and  _409
REMARK  172  A    between atoms: _409  and  _410
REMARK  173  A    between atoms: _412  and  _414
REMARK  174  A    between atoms: _414  and  _415
REMARK  175  A    between atoms: _414  and  _417
REMARK  176  A    between atoms: _417  and  _418
REMARK  177  A    between atoms: _421  and  _423
REMARK  178  A    between atoms: _423  and  _424
REMARK  179  A    between atoms: _426  and  _428
REMARK  180  A    between atoms: _428  and  _429
REMARK  181  A    between atoms: _431  and  _433
REMARK  182  A    between atoms: _433  and  _434
REMARK  183  A    between atoms: _433  and  _436
REMARK  184  A    between atoms: _436  and  _437
REMARK  185  A    between atoms: _440  and  _442
REMARK  186  A    between atoms: _442  and  _443
REMARK  187  A    between atoms: _445  and  _447
REMARK  188  A    between atoms: _447  and  _448
REMARK  189  A    between atoms: _450  and  _452
REMARK  190  A    between atoms: _452  and  _453
REMARK  191  A    between atoms: _452  and  _455
REMARK  192  A    between atoms: _455  and  _456
REMARK  193  A    between atoms: _459  and  _461
REMARK  194  A    between atoms: _461  and  _462
REMARK  195  A    between atoms: _461  and  _464
REMARK  196  A    between atoms: _464  and  _465
REMARK  197  A    between atoms: _468  and  _470
REMARK  198  A    between atoms: _470  and  _471
REMARK  199  A    between atoms: _470  and  _473
REMARK  200  A    between atoms: _473  and  _474
REMARK  201  A    between atoms: _478  and  _479
REMARK  202  A    between atoms: _484  and  _486
REMARK  203  A    between atoms: _486  and  _487
REMARK  204  A    between atoms: _486  and  _489
REMARK  205  A    between atoms: _492  and  _494
REMARK  206  A    between atoms: _494  and  _495
REMARK  207  A    between atoms: _494  and  _497
REMARK  208  A    between atoms: _497  and  _498
REMARK  209  A    between atoms: _503  and  _505
REMARK  210  A    between atoms: _505  and  _506
REMARK  211  A    between atoms: _505  and  _508
REMARK  212  A    between atoms: _508  and  _509
REMARK  213  A    between atoms: _512  and  _514
REMARK  214  A    between atoms: _514  and  _515
REMARK  215  A    between atoms: _514  and  _517
REMARK  216  A    between atoms: _517  and  _518
REMARK  217  A    between atoms: _521  and  _523
REMARK  218  A    between atoms: _523  and  _524
REMARK  219  A    between atoms: _526  and  _528
REMARK  220  A    between atoms: _528  and  _529
REMARK  221  A    between atoms: _528  and  _531
REMARK  222  A    between atoms: _531  and  _532
REMARK  223  A    between atoms: _532  and  _533
REMARK  224  A    between atoms: _533  and  _534
REMARK  225  A    between atoms: _543  and  _545
REMARK  226  A    between atoms: _545  and  _546
REMARK  227  A    between atoms: _545  and  _548
REMARK  228  A    between atoms: _548  and  _549
REMARK                            x       y       z     vdW  Elec       q    Type
REMARK                         _______ _______ _______ _____ _____    ______ ____
ROOT
ATOM      1  CA  LEU A   1     -12.971  11.970  13.530  0.00  0.00    +0.133 C 
ENDROOT
BRANCH   1   2
ATOM      2  N   LEU A   1     -13.760  13.173  13.278  0.00  0.00    -0.239 NA
ATOM      3  H   LEU A   1     -13.881  13.859  14.050  0.00  0.00    +0.142 HD
ENDBRANCH   1   2
BRANCH   1   4
ATOM      4  C   LEU A   1     -13.849  10.949  14.252  0.00  0.00    +0.224 C 
ATOM      5  O   LEU A   1     -14.640  11.299  15.133  0.00  0.00    -0.287 OA
ENDBRANCH   1   4
BRANCH   1   6
ATOM      6  CB  LEU A   1     -11.718  12.292  14.345  0.00  0.00    +0.025 C 
BRANCH   6   7
ATOM      7  CG  LEU A   1     -10.906  13.530  13.942  0.00  0.00    +0.002 C 
ATOM      8  CD2 LEU A   1      -9.734  13.744  14.898  0.00  0.00    +0.000 C 
ATOM      9  CD1 LEU A   1     -10.411  13.431  12.526  0.00  0.00    +0.000 C 
ENDBRANCH   6   7
ENDBRANCH   1   6
TORSDOF 4
REMARK  Name = ../refined-set-2016/4ll3/4ll3_pocket.pdb
REMARK  228 active torsions:
REMARK  status: ('A' for Active; 'I' for Inactive)
REMARK    1  A    between atoms: _1  and  _3
REMARK    2  A    between atoms: _3  and  _4
REMARK    3  A    between atoms: _3  and  _6
REMARK    4  A    between atoms: _6  and  _7
REMARK    5  A    between atoms: _7  and  _8
REMARK    6  A    between atoms: _8  and  _9
REMARK    7  A    between atoms: _18  and  _20
REMARK    8  A    between atoms: _20  and  _21
REMARK    9  A    between atoms: _20  and  _23
REMARK   10  A    between atoms: _23  and  _24
REMARK   11  A    between atoms: _27  and  _29
REMARK   12  A    between atoms: _29  and  _30
REMARK   13  A    between atoms: _29  and  _32
REMARK   14  A    between atoms: _32  and  _33
REMARK   15  A    between atoms: _36  and  _38
REMARK   16  A    between atoms: _38  and  _39
REMARK   17  A    between atoms: _38  and  _41
REMARK   18  A    between atoms: _41  and  _42
REMARK   19  A    between atoms: _45  and  _47
REMARK   20  A    between atoms: _47  and  _48
REMARK   21  A    between atoms: _47  and  _50
REMARK   22  A    between atoms: _50  and  _51
REMARK   23  A    between atoms: _54  and  _56
REMARK   24  A    between atoms: _56  and  _57
REMARK   25  A    between atoms: _59  and  _61
REMARK   26  A    between atoms: _61  and  _62
REMARK   27  A    between atoms: _65  and  _67
REMARK   28  A    between atoms: _67  and  _68
REMARK   29  A    between atoms: _67  and  _70
REMARK   30  A    between atoms: _70  and  _71
REMARK   31  A    between atoms: _74  and  _76
REMARK   32  A    between atoms: _76  and  _77
REMARK   33  A    between atoms: _76  and  _79
REMARK   34  A    between atoms: _79  and  _80
REMARK   35  A    between atoms: _80  and  _82
REMARK   36  A    between atoms: _83  and  _85
REMARK   37  A    between atoms: _85  and  _86
REMARK   38  A    between atoms: _85  and  _88
REMARK   39  A    between atoms: _88  and  _89
REMARK   40  A    between atoms: _92  and  _94
REMARK   41  A    between atoms: _94  and  _95
REMARK   42  A    between atoms: _94  and  _97
REMARK   43  A    between atoms: _100  and  _102
REMARK   44  A    between atoms: _102  and  _103
REMARK   45  A    between atoms: _102  and  _105
REMARK   46  A    between atoms: _105  and  _106
REMARK   47  A    between atoms: _106  and  _107
REMARK   48  A    between atoms: _107  and  _108
REMARK   49  A    between atoms: _108  and  _109
REMARK   50  A    between atoms: _113  and  _115
REMARK   51  A    between atoms: _115  and  _116
REMARK   52  A    between atoms: _115  and  _118
REMARK   53  A    between atoms: _118  and  _119
REMARK   54  A    between atoms: _119  and  _120
REMARK   55  A    between atoms: _122  and  _124
REMARK   56  A    between atoms: _124  and  _125
REMARK   57  A    between atoms: _124  and  _127
REMARK   58  A    between atoms: _127  and  _128
REMARK   59  A    between atoms: _131  and  _133
REMARK   60  A    between atoms: _133  and  _134
REMARK   61  A    between atoms: _136  and  _138
REMARK   62  A    between atoms: _138  and  _139
REMARK   63  A    between atoms: _141  and  _143
REMARK   64  A    between atoms: _143  and  _144
REMARK   65  A    between atoms: _143  and  _146
REMARK   66  A    between atoms: _146  and  _147
REMARK   67  A    between atoms: _150  and  _152
REMARK   68  A    between atoms: _152  and  _153
REMARK   69  A    between atoms: _155  and  _157
REMARK   70  A    between atoms: _157  and  _158
REMARK   71  A    between atoms: _160  and  _162
REMARK   72  A    between atoms: _162  and  _163
REMARK   73  A    between atoms: _162  and  _165
REMARK   74  A    between atoms: _165  and  _166
REMARK   75  A    between atoms: _172  and  _174
REMARK   76  A    between atoms: _174  and  _175
REMARK   77  A    between atoms: _174  and  _177
REMARK   78  A    between atoms: _177  and  _178
REMARK   79  A    between atoms: _181  and  _183
REMARK   80  A    between atoms: _183  and  _184
REMARK   81  A    between atoms: _183  and  _186
REMARK   82  A    between atoms: _189  and  _191
REMARK   83  A    between atoms: _191  and  _192
REMARK   84  A    between atoms: _191  and  _194
REMARK   85  A    between atoms: _194  and  _195
REMARK   86  A    between atoms: _199  and  _200
REMARK   87  A    between atoms: _205  and  _207
REMARK   88  A    between atoms: _207  and  _208
REMARK   89  A    between atoms: _207  and  _210
REMARK   90  A    between atoms: _210  and  _211
REMARK   91  A    between atoms: _215  and  _216
REMARK   92  A    between atoms: _221  and  _223
REMARK   93  A    between atoms: _223  and  _224
REMARK   94  A    between atoms: _223  and  _226
REMARK   95  A    between atoms: _229  and  _231
REMARK   96  A    between atoms: _231  and  _232
REMARK   97  A    between atoms: _231  and  _234
REMARK   98  A    between atoms: _234  and  _235
REMARK   99  A    between atoms: _240  and  _242
REMARK  100  A    between atoms: _242  and  _243
REMARK  101  A    between atoms: _242  and  _245
REMARK  102  A    between atoms: _245  and  _246
REMARK  103  A    between atoms: _249  and  _251
REMARK  104  A    between atoms: _251  and  _252
REMARK  105  A    between atoms: _251  and  _254
REMARK  106  A    between atoms: _254  and  _255
REMARK  107  A    between atoms: _258  and  _260
REMARK  108  A    between atoms: _260  and  _261
REMARK  109  A    between atoms: _263  and  _265
REMARK  110  A    between atoms: _265  and  _266
REMARK  111  A    between atoms: _265  and  _268
REMARK  112  A    between atoms: _268  and  _269
REMARK  113  A    between atoms: _269  and  _270
REMARK  114  A    between atoms: _270  and  _271
REMARK  115  A    between atoms: _280  and  _282
REMARK  116  A    between atoms: _282  and  _283
REMARK  117  A    between atoms: _282  and  _285
REMARK  118  A    between atoms: _285  and  _286
REMARK  119  A    between atoms: _291  and  _293
REMARK  120  A    between atoms: _293  and  _294
REMARK  121  A    between atoms: _293  and  _296
REMARK  122  A    between atoms: _296  and  _297
REMARK  123  A    between atoms: _297  and  _298
REMARK  124  A    between atoms: _298  and  _299
REMARK  125  A    between atoms: _308  and  _310
REMARK  126  A    between atoms: _310  and  _311
REMARK  127  A    between atoms: _310  and  _313
REMARK  128  A    between atoms: _313  and  _314
REMARK  129  A    between atoms: _317  and  _319
REMARK  130  A    between atoms: _319  and  _320
REMARK  131  A    between atoms: _319  and  _322
REMARK  132  A    between atoms: _322  and  _323
REMARK  133  A    between atoms: _326  and  _328
REMARK  134  A    between atoms: _328  and  _329
REMARK  135  A    between atoms: _328  and  _331
REMARK  136  A    between atoms: _331  and  _332
REMARK  137  A    between atoms: _335  and  _337
REMARK  138  A    between atoms: _337  and  _338
REMARK  139  A    between atoms: _337  and  _340
REMARK  140  A    between atoms: _340  and  _341
REMARK  141  A    between atoms: _344  and  _346
REMARK  142  A    between atoms: _346  and  _347
REMARK  143  A    between atoms: _349  and  _351
REMARK  144  A    between atoms: _351  and  _352
REMARK  145  A    between atoms: _355  and  _357
REMARK  146  A    between atoms: _357  and  _358
REMARK  147  A    between atoms: _357  and  _360
REMARK  148  A    between atoms: _360  and  _361
REMARK  149  A    between atoms: _364  and  _366
REMARK  150  A    between atoms: _366  and  _367
REMARK  151  A    between atoms: _366  and  _369
REMARK  152  A    between atoms: _369  and  _370
REMARK  153  A    between atoms: _370  and  _372
REMARK  154  A    between atoms: _373  and  _375
REMARK  155  A    between atoms: _375  and  _376
REMARK  156  A    between atoms: _375  and  _378
REMARK  157  A    between atoms: _378  and  _379
REMARK  158  A    between atoms: _382  and  _384
REMARK  159  A    between atoms: _384  and  _385
REMARK  160  A    between atoms: _384  and  _387
REMARK  161  A    between atoms: _390  and  _392
REMARK  162  A    between atoms: _392  and  _393
REMARK  163  A    between atoms: _392  and  _395
REMARK  164  A    between atoms: _395  and  _396
REMARK  165  A    between atoms: _396  and  _397
REMARK  166  A    between atoms: _397  and  _398
REMARK  167  A    between atoms: _398  and  _399
REMARK  168  A    between atoms: _403  and  _405
REMARK  169  A    between atoms: _405  and  _406
REMARK  170  A    between atoms: _405  and  _408
REMARK  171  A    between atoms: _408  and  _409
REMARK  172  A    between atoms: _409  and  _410
REMARK  173  A    between atoms: _412  and  _414
REMARK  174  A    between atoms: _414  and  _415
REMARK  175  A    between atoms: _414  and  _417
REMARK  176  A    between atoms: _417  and  _418
REMARK  177  A    between atoms: _421  and  _423
REMARK  178  A    between atoms: _423  and  _424
REMARK  179  A    between atoms: _426  and  _428
REMARK  180  A    between atoms: _428  and  _429
REMARK  181  A    between atoms: _431  and  _433
REMARK  182  A    between atoms: _433  and  _434
REMARK  183  A    between atoms: _433  and  _436
REMARK  184  A    between atoms: _436  and  _437
REMARK  185  A    between atoms: _440  and  _442
REMARK  186  A    between atoms: _442  and  _443
REMARK  187  A    between atoms: _445  and  _447
REMARK  188  A    between atoms: _447  and  _448
REMARK  189  A    between atoms: _450  and  _452
REMARK  190  A    between atoms: _452  and  _453
REMARK  191  A    between atoms: _452  and  _455
REMARK  192  A    between atoms: _455  and  _456
REMARK  193  A    between atoms: _459  and  _461
REMARK  194  A    between atoms: _461  and  _462
REMARK  195  A    between atoms: _461  and  _464
REMARK  196  A    between atoms: _464  and  _465
REMARK  197  A    between atoms: _468  and  _470
REMARK  198  A    between atoms: _470  and  _471
REMARK  199  A    between atoms: _470  and  _473
REMARK  200  A    between atoms: _473  and  _474
REMARK  201  A    between atoms: _478  and  _479
REMARK  202  A    between atoms: _484  and  _486
REMARK  203  A    between atoms: _486  and  _487
REMARK  204  A    between atoms: _486  and  _489
REMARK  205  A    between atoms: _492  and  _494
REMARK  206  A    between atoms: _494  and  _495
REMARK  207  A    between atoms: _494  and  _497
REMARK  208  A    between atoms: _497  and  _498
REMARK  209  A    between atoms: _503  and  _505
REMARK  210  A    between atoms: _505  and  _506
REMARK  211  A    between atoms: _505  and  _508
REMARK  212  A    between atoms: _508  and  _509
REMARK  213  A    between atoms: _512  and  _514
REMARK  214  A    between atoms: _514  and  _515
REMARK  215  A    between atoms: _514  and  _517
REMARK  216  A    between atoms: _517  and  _518
REMARK  217  A    between atoms: _521  and  _523
REMARK  218  A    between atoms: _523  and  _524
REMARK  219  A    between atoms: _526  and  _528
REMARK  220  A    between atoms: _528  and  _529
REMARK  221  A    between atoms: _528  and  _531
REMARK  222  A    between atoms: _531  and  _532
REMARK  223  A    between atoms: _532  and  _533
REMARK  224  A    between atoms: _533  and  _534
REMARK  225  A    between atoms: _543  and  _545
REMARK  226  A    between atoms: _545  and  _546
REMARK  227  A    between atoms: _545  and  _548
REMARK  228  A    between atoms: _548  and  _549
REMARK                            x       y       z     vdW  Elec       q    Type
REMARK                         _______ _______ _______ _____ _____    ______ ____
ROOT
ATOM      1  CA  ILE A   6     -16.451  15.561  21.892  0.00  0.00    +0.149 C 
ENDROOT
BRANCH   1   2
ATOM      2  C   ILE A   6     -16.486  16.479  20.664  0.00  0.00    +0.241 C 
ATOM      3  N   ILE A   7     -17.124  17.634  20.830  0.00  0.00    -0.297 N 
ATOM      4  H   ILE A   7     -17.637  17.785  21.722  0.00  0.00    +0.150 HD
ATOM      5  O   ILE A   6     -15.979  16.134  19.599  0.00  0.00    -0.273 OA
BRANCH   3   6
ATOM      6  CA  ILE A   7     -17.148  18.702  19.837  0.00  0.00    +0.149 C 
BRANCH   6   7
ATOM      7  C   ILE A   7     -15.942  19.621  20.071  0.00  0.00    +0.241 C 
ATOM      8  O   ILE A   7     -15.868  20.321  21.075  0.00  0.00    -0.273 OA
ATOM      9  N   GLY A   8     -15.024  19.635  19.109  0.00  0.00    -0.295 N 
ATOM     10  H   GLY A   8     -15.200  19.108  18.230  0.00  0.00    +0.150 HD
BRANCH   9  11
ATOM     11  CA  GLY A   8     -13.788  20.366  19.260  0.00  0.00    +0.176 C 
BRANCH  11  12
ATOM     12  C   GLY A   8     -13.811  21.713  18.600  0.00  0.00    +0.243 C 
ATOM     13  N   ARG A   9     -12.723  22.473  18.746  0.00  0.00    -0.297 N 
ATOM     14  H   ARG A   9     -11.882  22.080  19.216  0.00  0.00    +0.150 HD
ATOM     15  O   GLY A   8     -14.784  22.062  17.952  0.00  0.00    -0.273 OA
BRANCH  13  16
ATOM     16  CA  ARG A   9     -12.696  23.862  18.251  0.00  0.00    +0.149 C 
BRANCH  16  17
ATOM     17  C   ARG A   9     -12.984  23.977  16.736  0.00  0.00    +0.241 C 
ATOM     18  O   ARG A   9     -13.548  24.976  16.289  0.00  0.00    -0.273 OA
ATOM     19  N   ASN A  10     -12.609  22.972  15.945  0.00  0.00    -0.298 N 
ATOM     20  H   ASN A  10     -12.129  22.143  16.349  0.00  0.00    +0.150 HD
BRANCH  19  21
ATOM     21  CA  ASN A  10     -12.874  23.038  14.510  0.00  0.00    +0.146 C 
BRANCH  21  22
ATOM     22  C   ASN A  10     -14.360  23.261  14.212  0.00  0.00    +0.227 C 
ATOM     23  O   ASN A  10     -14.717  23.885  13.194  0.00  0.00    -0.286 OA
ENDBRANCH  21  22
BRANCH  21  24
ATOM     24  CB  ASN A  10     -12.345  21.809  13.772  0.00  0.00    +0.112 C 
BRANCH  24  25
ATOM     25  CG  ASN A  10     -13.246  20.590  13.927  0.00  0.00    +0.222 C 
ATOM     26  OD1 ASN A  10     -13.506  20.159  15.038  0.00  0.00    -0.275 OA
ATOM     27  ND2 ASN A  10     -13.723  20.034  12.803  0.00  0.00    -0.329 N 
ATOM     28 HD21 ASN A  10     -14.342  19.200  12.858  0.00  0.00    +0.145 HD
ATOM     29 HD22 ASN A  10     -13.474  20.437  11.877  0.00  0.00    +0.145 HD
ENDBRANCH  24  25
ENDBRANCH  21  24
ENDBRANCH  19  21
ENDBRANCH  16  17
BRANCH  16  30
ATOM     30  CB  ARG A   9     -11.379  24.539  18.596  0.00  0.00    +0.033 C 
BRANCH  30  31
ATOM     31  CG  ARG A   9     -11.066  24.590  20.130  0.00  0.00    +0.045 C 
BRANCH  31  32
ATOM     32  CD  ARG A   9      -9.807  25.426  20.383  0.00  0.00    +0.174 C 
BRANCH  32  33
ATOM     33  NE  ARG A   9      -8.616  24.768  19.824  0.00  0.00    -0.265 N 
ATOM     34  HE  ARG A   9      -8.220  23.972  20.363  0.00  0.00    +0.259 HD
ATOM     35  CZ  ARG A   9      -7.997  25.098  18.690  0.00  0.00    +0.342 C 
ATOM     36  NH2 ARG A   9      -6.934  24.405  18.314  0.00  0.00    -0.292 N 
ATOM     37 HH21 ARG A   9      -6.593  23.616  18.900  0.00  0.00    +0.255 HD
ATOM     38 HH22 ARG A   9      -6.439  24.649  17.432  0.00  0.00    +0.255 HD
ATOM     39  NH1 ARG A   9      -8.421  26.103  17.924  0.00  0.00    -0.292 N 
ATOM     40 HH11 ARG A   9      -9.257  26.655  18.205  0.00  0.00    +0.255 HD
ATOM     41 HH12 ARG A   9      -7.916  26.336  17.045  0.00  0.00    +0.255 HD
ENDBRANCH  32  33
ENDBRANCH  31  32
ENDBRANCH  30  31
ENDBRANCH  16  30
ENDBRANCH  13  16
ENDBRANCH  11  12
ENDBRANCH   9  11
ENDBRANCH   6   7
BRANCH   6  42
ATOM     42  CB  ILE A   7     -18.474  19.525  19.895  0.00  0.00    +0.027 C 
ATOM     43  CG2 ILE A   7     -18.533  20.629  18.771  0.00  0.00    +0.002 C 
BRANCH  42  44
ATOM     44  CG1 ILE A   7     -19.693  18.593  19.811  0.00  0.00    +0.002 C 
ATOM     45  CD1 ILE A   7     -19.704  17.682  18.585  0.00  0.00    +0.000 C 
ENDBRANCH  42  44
ENDBRANCH   6  42
ENDBRANCH   3   6
ENDBRANCH   1   2
BRANCH   1  48
ATOM     46  C   ASN A   5     -17.922  13.694  22.323  0.00  0.00    +0.241 C 
ATOM     47  O   ASN A   5     -18.451  14.312  23.259  0.00  0.00    -0.273 OA
ATOM     48  N   ILE A   6     -16.944  14.220  21.596  0.00  0.00    -0.297 N 
ATOM     49  H   ILE A   6     -16.528  13.675  20.814  0.00  0.00    +0.150 HD
BRANCH  46  50
ATOM     50  CA  ASN A   5     -18.361  12.266  21.981  0.00  0.00    +0.158 C 
BRANCH  50  52
ATOM     51  C   VAL A   4     -17.026  11.148  23.706  0.00  0.00    +0.241 C 
ATOM     52  N   ASN A   5     -18.215  11.422  23.159  0.00  0.00    -0.297 N 
ATOM     53  H   ASN A   5     -19.069  11.016  23.592  0.00  0.00    +0.150 HD
ATOM     54  O   VAL A   4     -15.950  11.398  23.151  0.00  0.00    -0.273 OA
BRANCH  51  55
ATOM     55  CA  VAL A   4     -17.003  10.441  25.056  0.00  0.00    +0.149 C 
BRANCH  55  58
ATOM     56  C   PRO A   3     -16.001   8.271  25.634  0.00  0.00    +0.241 C 
ATOM     57  O   PRO A   3     -17.003   7.860  26.192  0.00  0.00    -0.273 OA
ATOM     58  N   VAL A   4     -15.950   9.440  24.991  0.00  0.00    -0.297 N 
ATOM     59  H   VAL A   4     -15.111   9.646  24.412  0.00  0.00    +0.150 HD
BRANCH  56  62
ATOM     60  C   THR A   2     -13.983   7.569  23.373  0.00  0.00    +0.246 C 
ATOM     61  N   PRO A   3     -13.723   7.847  24.662  0.00  0.00    -0.272 N 
ATOM     62  CA  PRO A   3     -14.734   7.420  25.636  0.00  0.00    +0.152 C 
ATOM     63  CB  PRO A   3     -13.998   7.550  26.977  0.00  0.00    +0.031 C 
ATOM     64  CG  PRO A   3     -12.968   8.522  26.747  0.00  0.00    +0.024 C 
ATOM     65  CD  PRO A   3     -12.549   8.448  25.324  0.00  0.00    +0.094 C 
ATOM     66  O   THR A   2     -15.003   6.966  23.015  0.00  0.00    -0.273 OA
BRANCH  60  67
ATOM     67  CA  THR A   2     -12.946   8.015  22.321  0.00  0.00    +0.176 C 
BRANCH  67  70
ATOM     68  C   PRO A   1     -12.363   5.806  21.471  0.00  0.00    +0.239 C 
ATOM     69  O   PRO A   1     -11.637   5.539  22.431  0.00  0.00    -0.274 OA
ATOM     70  N   THR A   2     -12.920   6.999  21.283  0.00  0.00    -0.295 N 
ATOM     71  H   THR A   2     -13.352   7.212  20.361  0.00  0.00    +0.150 HD
BRANCH  68  73
ATOM     72  N   PRO A   1     -12.357   5.177  19.042  0.00  0.00    -0.210 NA
ATOM     73  CA  PRO A   1     -12.653   4.748  20.410  0.00  0.00    +0.149 C 
ATOM     74  CB  PRO A   1     -11.755   3.524  20.595  0.00  0.00    +0.028 C 
ATOM     75  CG  PRO A   1     -10.606   3.753  19.682  0.00  0.00    +0.021 C 
ATOM     76  CD  PRO A   1     -11.072   4.635  18.558  0.00  0.00    +0.089 C 
ENDBRANCH  68  73
ENDBRANCH  67  70
BRANCH  67  77
ATOM     77  CB  THR A   2     -13.303   9.422  21.757  0.00  0.00    +0.137 C 
ATOM     78  CG2 THR A   2     -14.554   9.383  20.869  0.00  0.00    +0.034 C 
BRANCH  77  79
ATOM     79  OG1 THR A   2     -13.533  10.318  22.838  0.00  0.00    -0.382 OA
ATOM     80  HG1 THR A   2     -14.283   9.982  23.390  0.00  0.00    +0.210 HD
ENDBRANCH  77  79
ENDBRANCH  67  77
ENDBRANCH  60  67
ENDBRANCH  56  62
ENDBRANCH  55  58
BRANCH  55  81
ATOM     81  CB  VAL A   4     -16.647  11.438  26.213  0.00  0.00    +0.027 C 
ATOM     82  CG2 VAL A   4     -17.016  10.822  27.585  0.00  0.00    +0.002 C 
ATOM     83  CG1 VAL A   4     -17.324  12.766  26.064  0.00  0.00    +0.002 C 
ENDBRANCH  55  81
ENDBRANCH  51  55
ENDBRANCH  50  52
BRANCH  50  84
ATOM     84  CB  ASN A   5     -19.806  12.343  21.487  0.00  0.00    +0.114 C 
BRANCH  84  85
ATOM     85  CG  ASN A   5     -20.378  11.001  20.985  0.00  0.00    +0.222 C 
ATOM     86  ND2 ASN A   5     -21.676  10.757  21.299  0.00  0.00    -0.329 N 
ATOM     87 HD21 ASN A   5     -22.208  11.439  21.876  0.00  0.00    +0.145 HD
ATOM     88 HD22 ASN A   5     -22.138   9.888  20.963  0.00  0.00    +0.145 HD
ATOM     89  OD1 ASN A   5     -19.697  10.221  20.300  0.00  0.00    -0.275 OA
ENDBRANCH  84  85
ENDBRANCH  50  84
ENDBRANCH  46  50
ENDBRANCH   1  48
BRANCH   1  90
ATOM     90  CB  ILE A   6     -15.035  15.535  22.562  0.00  0.00    +0.027 C 
ATOM     91  CG2 ILE A   6     -15.080  14.832  23.925  0.00  0.00    +0.002 C 
BRANCH  90  92
ATOM     92  CG1 ILE A   6     -13.988  14.868  21.656  0.00  0.00    +0.002 C 
ATOM     93  CD1 ILE A   6     -12.555  14.954  22.201  0.00  0.00    +0.000 C 
ENDBRANCH  90  92
ENDBRANCH   1  90
TORSDOF 33
REMARK  Name = ../refined-set-2016/4ll3/4ll3_pocket.pdb
REMARK  228 active torsions:
REMARK  status: ('A' for Active; 'I' for Inactive)
REMARK    1  A    between atoms: _1  and  _3
REMARK    2  A    between atoms: _3  and  _4
REMARK    3  A    between atoms: _3  and  _6
REMARK    4  A    between atoms: _6  and  _7
REMARK    5  A    between atoms: _7  and  _8
REMARK    6  A    between atoms: _8  and  _9
REMARK    7  A    between atoms: _18  and  _20
REMARK    8  A    between atoms: _20  and  _21
REMARK    9  A    between atoms: _20  and  _23
REMARK   10  A    between atoms: _23  and  _24
REMARK   11  A    between atoms: _27  and  _29
REMARK   12  A    between atoms: _29  and  _30
REMARK   13  A    between atoms: _29  and  _32
REMARK   14  A    between atoms: _32  and  _33
REMARK   15  A    between atoms: _36  and  _38
REMARK   16  A    between atoms: _38  and  _39
REMARK   17  A    between atoms: _38  and  _41
REMARK   18  A    between atoms: _41  and  _42
REMARK   19  A    between atoms: _45  and  _47
REMARK   20  A    between atoms: _47  and  _48
REMARK   21  A    between atoms: _47  and  _50
REMARK   22  A    between atoms: _50  and  _51
REMARK   23  A    between atoms: _54  and  _56
REMARK   24  A    between atoms: _56  and  _57
REMARK   25  A    between atoms: _59  and  _61
REMARK   26  A    between atoms: _61  and  _62
REMARK   27  A    between atoms: _65  and  _67
REMARK   28  A    between atoms: _67  and  _68
REMARK   29  A    between atoms: _67  and  _70
REMARK   30  A    between atoms: _70  and  _71
REMARK   31  A    between atoms: _74  and  _76
REMARK   32  A    between atoms: _76  and  _77
REMARK   33  A    between atoms: _76  and  _79
REMARK   34  A    between atoms: _79  and  _80
REMARK   35  A    between atoms: _80  and  _82
REMARK   36  A    between atoms: _83  and  _85
REMARK   37  A    between atoms: _85  and  _86
REMARK   38  A    between atoms: _85  and  _88
REMARK   39  A    between atoms: _88  and  _89
REMARK   40  A    between atoms: _92  and  _94
REMARK   41  A    between atoms: _94  and  _95
REMARK   42  A    between atoms: _94  and  _97
REMARK   43  A    between atoms: _100  and  _102
REMARK   44  A    between atoms: _102  and  _103
REMARK   45  A    between atoms: _102  and  _105
REMARK   46  A    between atoms: _105  and  _106
REMARK   47  A    between atoms: _106  and  _107
REMARK   48  A    between atoms: _107  and  _108
REMARK   49  A    between atoms: _108  and  _109
REMARK   50  A    between atoms: _113  and  _115
REMARK   51  A    between atoms: _115  and  _116
REMARK   52  A    between atoms: _115  and  _118
REMARK   53  A    between atoms: _118  and  _119
REMARK   54  A    between atoms: _119  and  _120
REMARK   55  A    between atoms: _122  and  _124
REMARK   56  A    between atoms: _124  and  _125
REMARK   57  A    between atoms: _124  and  _127
REMARK   58  A    between atoms: _127  and  _128
REMARK   59  A    between atoms: _131  and  _133
REMARK   60  A    between atoms: _133  and  _134
REMARK   61  A    between atoms: _136  and  _138
REMARK   62  A    between atoms: _138  and  _139
REMARK   63  A    between atoms: _141  and  _143
REMARK   64  A    between atoms: _143  and  _144
REMARK   65  A    between atoms: _143  and  _146
REMARK   66  A    between atoms: _146  and  _147
REMARK   67  A    between atoms: _150  and  _152
REMARK   68  A    between atoms: _152  and  _153
REMARK   69  A    between atoms: _155  and  _157
REMARK   70  A    between atoms: _157  and  _158
REMARK   71  A    between atoms: _160  and  _162
REMARK   72  A    between atoms: _162  and  _163
REMARK   73  A    between atoms: _162  and  _165
REMARK   74  A    between atoms: _165  and  _166
REMARK   75  A    between atoms: _172  and  _174
REMARK   76  A    between atoms: _174  and  _175
REMARK   77  A    between atoms: _174  and  _177
REMARK   78  A    between atoms: _177  and  _178
REMARK   79  A    between atoms: _181  and  _183
REMARK   80  A    between atoms: _183  and  _184
REMARK   81  A    between atoms: _183  and  _186
REMARK   82  A    between atoms: _189  and  _191
REMARK   83  A    between atoms: _191  and  _192
REMARK   84  A    between atoms: _191  and  _194
REMARK   85  A    between atoms: _194  and  _195
REMARK   86  A    between atoms: _199  and  _200
REMARK   87  A    between atoms: _205  and  _207
REMARK   88  A    between atoms: _207  and  _208
REMARK   89  A    between atoms: _207  and  _210
REMARK   90  A    between atoms: _210  and  _211
REMARK   91  A    between atoms: _215  and  _216
REMARK   92  A    between atoms: _221  and  _223
REMARK   93  A    between atoms: _223  and  _224
REMARK   94  A    between atoms: _223  and  _226
REMARK   95  A    between atoms: _229  and  _231
REMARK   96  A    between atoms: _231  and  _232
REMARK   97  A    between atoms: _231  and  _234
REMARK   98  A    between atoms: _234  and  _235
REMARK   99  A    between atoms: _240  and  _242
REMARK  100  A    between atoms: _242  and  _243
REMARK  101  A    between atoms: _242  and  _245
REMARK  102  A    between atoms: _245  and  _246
REMARK  103  A    between atoms: _249  and  _251
REMARK  104  A    between atoms: _251  and  _252
REMARK  105  A    between atoms: _251  and  _254
REMARK  106  A    between atoms: _254  and  _255
REMARK  107  A    between atoms: _258  and  _260
REMARK  108  A    between atoms: _260  and  _261
REMARK  109  A    between atoms: _263  and  _265
REMARK  110  A    between atoms: _265  and  _266
REMARK  111  A    between atoms: _265  and  _268
REMARK  112  A    between atoms: _268  and  _269
REMARK  113  A    between atoms: _269  and  _270
REMARK  114  A    between atoms: _270  and  _271
REMARK  115  A    between atoms: _280  and  _282
REMARK  116  A    between atoms: _282  and  _283
REMARK  117  A    between atoms: _282  and  _285
REMARK  118  A    between atoms: _285  and  _286
REMARK  119  A    between atoms: _291  and  _293
REMARK  120  A    between atoms: _293  and  _294
REMARK  121  A    between atoms: _293  and  _296
REMARK  122  A    between atoms: _296  and  _297
REMARK  123  A    between atoms: _297  and  _298
REMARK  124  A    between atoms: _298  and  _299
REMARK  125  A    between atoms: _308  and  _310
REMARK  126  A    between atoms: _310  and  _311
REMARK  127  A    between atoms: _310  and  _313
REMARK  128  A    between atoms: _313  and  _314
REMARK  129  A    between atoms: _317  and  _319
REMARK  130  A    between atoms: _319  and  _320
REMARK  131  A    between atoms: _319  and  _322
REMARK  132  A    between atoms: _322  and  _323
REMARK  133  A    between atoms: _326  and  _328
REMARK  134  A    between atoms: _328  and  _329
REMARK  135  A    between atoms: _328  and  _331
REMARK  136  A    between atoms: _331  and  _332
REMARK  137  A    between atoms: _335  and  _337
REMARK  138  A    between atoms: _337  and  _338
REMARK  139  A    between atoms: _337  and  _340
REMARK  140  A    between atoms: _340  and  _341
REMARK  141  A    between atoms: _344  and  _346
REMARK  142  A    between atoms: _346  and  _347
REMARK  143  A    between atoms: _349  and  _351
REMARK  144  A    between atoms: _351  and  _352
REMARK  145  A    between atoms: _355  and  _357
REMARK  146  A    between atoms: _357  and  _358
REMARK  147  A    between atoms: _357  and  _360
REMARK  148  A    between atoms: _360  and  _361
REMARK  149  A    between atoms: _364  and  _366
REMARK  150  A    between atoms: _366  and  _367
REMARK  151  A    between atoms: _366  and  _369
REMARK  152  A    between atoms: _369  and  _370
REMARK  153  A    between atoms: _370  and  _372
REMARK  154  A    between atoms: _373  and  _375
REMARK  155  A    between atoms: _375  and  _376
REMARK  156  A    between atoms: _375  and  _378
REMARK  157  A    between atoms: _378  and  _379
REMARK  158  A    between atoms: _382  and  _384
REMARK  159  A    between atoms: _384  and  _385
REMARK  160  A    between atoms: _384  and  _387
REMARK  161  A    between atoms: _390  and  _392
REMARK  162  A    between atoms: _392  and  _393
REMARK  163  A    between atoms: _392  and  _395
REMARK  164  A    between atoms: _395  and  _396
REMARK  165  A    between atoms: _396  and  _397
REMARK  166  A    between atoms: _397  and  _398
REMARK  167  A    between atoms: _398  and  _399
REMARK  168  A    between atoms: _403  and  _405
REMARK  169  A    between atoms: _405  and  _406
REMARK  170  A    between atoms: _405  and  _408
REMARK  171  A    between atoms: _408  and  _409
REMARK  172  A    between atoms: _409  and  _410
REMARK  173  A    between atoms: _412  and  _414
REMARK  174  A    between atoms: _414  and  _415
REMARK  175  A    between atoms: _414  and  _417
REMARK  176  A    between atoms: _417  and  _418
REMARK  177  A    between atoms: _421  and  _423
REMARK  178  A    between atoms: _423  and  _424
REMARK  179  A    between atoms: _426  and  _428
REMARK  180  A    between atoms: _428  and  _429
REMARK  181  A    between atoms: _431  and  _433
REMARK  182  A    between atoms: _433  and  _434
REMARK  183  A    between atoms: _433  and  _436
REMARK  184  A    between atoms: _436  and  _437
REMARK  185  A    between atoms: _440  and  _442
REMARK  186  A    between atoms: _442  and  _443
REMARK  187  A    between atoms: _445  and  _447
REMARK  188  A    between atoms: _447  and  _448
REMARK  189  A    between atoms: _450  and  _452
REMARK  190  A    between atoms: _452  and  _453
REMARK  191  A    between atoms: _452  and  _455
REMARK  192  A    between atoms: _455  and  _456
REMARK  193  A    between atoms: _459  and  _461
REMARK  194  A    between atoms: _461  and  _462
REMARK  195  A    between atoms: _461  and  _464
REMARK  196  A    between atoms: _464  and  _465
REMARK  197  A    between atoms: _468  and  _470
REMARK  198  A    between atoms: _470  and  _471
REMARK  199  A    between atoms: _470  and  _473
REMARK  200  A    between atoms: _473  and  _474
REMARK  201  A    between atoms: _478  and  _479
REMARK  202  A    between atoms: _484  and  _486
REMARK  203  A    between atoms: _486  and  _487
REMARK  204  A    between atoms: _486  and  _489
REMARK  205  A    between atoms: _492  and  _494
REMARK  206  A    between atoms: _494  and  _495
REMARK  207  A    between atoms: _494  and  _497
REMARK  208  A    between atoms: _497  and  _498
REMARK  209  A    between atoms: _503  and  _505
REMARK  210  A    between atoms: _505  and  _506
REMARK  211  A    between atoms: _505  and  _508
REMARK  212  A    between atoms: _508  and  _509
REMARK  213  A    between atoms: _512  and  _514
REMARK  214  A    between atoms: _514  and  _515
REMARK  215  A    between atoms: _514  and  _517
REMARK  216  A    between atoms: _517  and  _518
REMARK  217  A    between atoms: _521  and  _523
REMARK  218  A    between atoms: _523  and  _524
REMARK  219  A    between atoms: _526  and  _528
REMARK  220  A    between atoms: _528  and  _529
REMARK  221  A    between atoms: _528  and  _531
REMARK  222  A    between atoms: _531  and  _532
REMARK  223  A    between atoms: _532  and  _533
REMARK  224  A    between atoms: _533  and  _534
REMARK  225  A    between atoms: _543  and  _545
REMARK  226  A    between atoms: _545  and  _546
REMARK  227  A    between atoms: _545  and  _548
REMARK  228  A    between atoms: _548  and  _549
REMARK                            x       y       z     vdW  Elec       q    Type
REMARK                         _______ _______ _______ _____ _____    ______ ____
ROOT
ATOM      1  NE  ARG A   1      -3.673  22.814  21.641  0.00  0.00    -0.265 N 
ATOM      2  HE  ARG A   1      -4.221  22.391  22.417  0.00  0.00    +0.259 HD
ATOM      3  CZ  ARG A   1      -3.083  21.987  20.775  0.00  0.00    +0.342 C 
ATOM      4  NH2 ARG A   1      -3.193  20.670  20.927  0.00  0.00    -0.292 N 
ATOM      5 HH21 ARG A   1      -3.740  20.282  21.722  0.00  0.00    +0.255 HD
ATOM      6 HH22 ARG A   1      -2.732  20.028  20.251  0.00  0.00    +0.255 HD
ATOM      7  NH1 ARG A   1      -2.372  22.469  19.758  0.00  0.00    -0.292 N 
ATOM      8 HH11 ARG A   1      -2.273  23.497  19.634  0.00  0.00    +0.255 HD
ATOM      9 HH12 ARG A   1      -1.916  21.818  19.088  0.00  0.00    +0.255 HD
ENDROOT
BRANCH   1  10
ATOM     10  CD  ARG A   1      -3.602  24.276  21.574  0.00  0.00    +0.174 C 
BRANCH  10  11
ATOM     11  CG  ARG A   1      -4.943  24.927  21.290  0.00  0.00    +0.045 C 
BRANCH  11  12
ATOM     12  CB  ARG A   1      -4.954  26.337  21.902  0.00  0.00    +0.029 C 
BRANCH  12  13
ATOM     13  CA  ARG A   1      -6.202  27.142  21.576  0.00  0.00    +0.133 C 
BRANCH  13  14
ATOM     14  N   ARG A   1      -6.061  27.754  20.221  0.00  0.00    -0.239 NA
ATOM     15  H   ARG A   1      -5.227  27.533  19.640  0.00  0.00    +0.142 HD
ENDBRANCH  13  14
BRANCH  13  16
ATOM     16  C   ARG A   1      -6.367  28.268  22.615  0.00  0.00    +0.224 C 
ATOM     17  O   ARG A   1      -5.654  29.267  22.539  0.00  0.00    -0.287 OA
ENDBRANCH  13  16
ENDBRANCH  12  13
ENDBRANCH  11  12
ENDBRANCH  10  11
ENDBRANCH   1  10
TORSDOF 6
REMARK  Name = ../refined-set-2016/4ll3/4ll3_pocket.pdb
REMARK  228 active torsions:
REMARK  status: ('A' for Active; 'I' for Inactive)
REMARK    1  A    between atoms: _1  and  _3
REMARK    2  A    between atoms: _3  and  _4
REMARK    3  A    between atoms: _3  and  _6
REMARK    4  A    between atoms: _6  and  _7
REMARK    5  A    between atoms: _7  and  _8
REMARK    6  A    between atoms: _8  and  _9
REMARK    7  A    between atoms: _18  and  _20
REMARK    8  A    between atoms: _20  and  _21
REMARK    9  A    between atoms: _20  and  _23
REMARK   10  A    between atoms: _23  and  _24
REMARK   11  A    between atoms: _27  and  _29
REMARK   12  A    between atoms: _29  and  _30
REMARK   13  A    between atoms: _29  and  _32
REMARK   14  A    between atoms: _32  and  _33
REMARK   15  A    between atoms: _36  and  _38
REMARK   16  A    between atoms: _38  and  _39
REMARK   17  A    between atoms: _38  and  _41
REMARK   18  A    between atoms: _41  and  _42
REMARK   19  A    between atoms: _45  and  _47
REMARK   20  A    between atoms: _47  and  _48
REMARK   21  A    between atoms: _47  and  _50
REMARK   22  A    between atoms: _50  and  _51
REMARK   23  A    between atoms: _54  and  _56
REMARK   24  A    between atoms: _56  and  _57
REMARK   25  A    between atoms: _59  and  _61
REMARK   26  A    between atoms: _61  and  _62
REMARK   27  A    between atoms: _65  and  _67
REMARK   28  A    between atoms: _67  and  _68
REMARK   29  A    between atoms: _67  and  _70
REMARK   30  A    between atoms: _70  and  _71
REMARK   31  A    between atoms: _74  and  _76
REMARK   32  A    between atoms: _76  and  _77
REMARK   33  A    between atoms: _76  and  _79
REMARK   34  A    between atoms: _79  and  _80
REMARK   35  A    between atoms: _80  and  _82
REMARK   36  A    between atoms: _83  and  _85
REMARK   37  A    between atoms: _85  and  _86
REMARK   38  A    between atoms: _85  and  _88
REMARK   39  A    between atoms: _88  and  _89
REMARK   40  A    between atoms: _92  and  _94
REMARK   41  A    between atoms: _94  and  _95
REMARK   42  A    between atoms: _94  and  _97
REMARK   43  A    between atoms: _100  and  _102
REMARK   44  A    between atoms: _102  and  _103
REMARK   45  A    between atoms: _102  and  _105
REMARK   46  A    between atoms: _105  and  _106
REMARK   47  A    between atoms: _106  and  _107
REMARK   48  A    between atoms: _107  and  _108
REMARK   49  A    between atoms: _108  and  _109
REMARK   50  A    between atoms: _113  and  _115
REMARK   51  A    between atoms: _115  and  _116
REMARK   52  A    between atoms: _115  and  _118
REMARK   53  A    between atoms: _118  and  _119
REMARK   54  A    between atoms: _119  and  _120
REMARK   55  A    between atoms: _122  and  _124
REMARK   56  A    between atoms: _124  and  _125
REMARK   57  A    between atoms: _124  and  _127
REMARK   58  A    between atoms: _127  and  _128
REMARK   59  A    between atoms: _131  and  _133
REMARK   60  A    between atoms: _133  and  _134
REMARK   61  A    between atoms: _136  and  _138
REMARK   62  A    between atoms: _138  and  _139
REMARK   63  A    between atoms: _141  and  _143
REMARK   64  A    between atoms: _143  and  _144
REMARK   65  A    between atoms: _143  and  _146
REMARK   66  A    between atoms: _146  and  _147
REMARK   67  A    between atoms: _150  and  _152
REMARK   68  A    between atoms: _152  and  _153
REMARK   69  A    between atoms: _155  and  _157
REMARK   70  A    between atoms: _157  and  _158
REMARK   71  A    between atoms: _160  and  _162
REMARK   72  A    between atoms: _162  and  _163
REMARK   73  A    between atoms: _162  and  _165
REMARK   74  A    between atoms: _165  and  _166
REMARK   75  A    between atoms: _172  and  _174
REMARK   76  A    between atoms: _174  and  _175
REMARK   77  A    between atoms: _174  and  _177
REMARK   78  A    between atoms: _177  and  _178
REMARK   79  A    between atoms: _181  and  _183
REMARK   80  A    between atoms: _183  and  _184
REMARK   81  A    between atoms: _183  and  _186
REMARK   82  A    between atoms: _189  and  _191
REMARK   83  A    between atoms: _191  and  _192
REMARK   84  A    between atoms: _191  and  _194
REMARK   85  A    between atoms: _194  and  _195
REMARK   86  A    between atoms: _199  and  _200
REMARK   87  A    between atoms: _205  and  _207
REMARK   88  A    between atoms: _207  and  _208
REMARK   89  A    between atoms: _207  and  _210
REMARK   90  A    between atoms: _210  and  _211
REMARK   91  A    between atoms: _215  and  _216
REMARK   92  A    between atoms: _221  and  _223
REMARK   93  A    between atoms: _223  and  _224
REMARK   94  A    between atoms: _223  and  _226
REMARK   95  A    between atoms: _229  and  _231
REMARK   96  A    between atoms: _231  and  _232
REMARK   97  A    between atoms: _231  and  _234
REMARK   98  A    between atoms: _234  and  _235
REMARK   99  A    between atoms: _240  and  _242
REMARK  100  A    between atoms: _242  and  _243
REMARK  101  A    between atoms: _242  and  _245
REMARK  102  A    between atoms: _245  and  _246
REMARK  103  A    between atoms: _249  and  _251
REMARK  104  A    between atoms: _251  and  _252
REMARK  105  A    between atoms: _251  and  _254
REMARK  106  A    between atoms: _254  and  _255
REMARK  107  A    between atoms: _258  and  _260
REMARK  108  A    between atoms: _260  and  _261
REMARK  109  A    between atoms: _263  and  _265
REMARK  110  A    between atoms: _265  and  _266
REMARK  111  A    between atoms: _265  and  _268
REMARK  112  A    between atoms: _268  and  _269
REMARK  113  A    between atoms: _269  and  _270
REMARK  114  A    between atoms: _270  and  _271
REMARK  115  A    between atoms: _280  and  _282
REMARK  116  A    between atoms: _282  and  _283
REMARK  117  A    between atoms: _282  and  _285
REMARK  118  A    between atoms: _285  and  _286
REMARK  119  A    between atoms: _291  and  _293
REMARK  120  A    between atoms: _293  and  _294
REMARK  121  A    between atoms: _293  and  _296
REMARK  122  A    between atoms: _296  and  _297
REMARK  123  A    between atoms: _297  and  _298
REMARK  124  A    between atoms: _298  and  _299
REMARK  125  A    between atoms: _308  and  _310
REMARK  126  A    between atoms: _310  and  _311
REMARK  127  A    between atoms: _310  and  _313
REMARK  128  A    between atoms: _313  and  _314
REMARK  129  A    between atoms: _317  and  _319
REMARK  130  A    between atoms: _319  and  _320
REMARK  131  A    between atoms: _319  and  _322
REMARK  132  A    between atoms: _322  and  _323
REMARK  133  A    between atoms: _326  and  _328
REMARK  134  A    between atoms: _328  and  _329
REMARK  135  A    between atoms: _328  and  _331
REMARK  136  A    between atoms: _331  and  _332
REMARK  137  A    between atoms: _335  and  _337
REMARK  138  A    between atoms: _337  and  _338
REMARK  139  A    between atoms: _337  and  _340
REMARK  140  A    between atoms: _340  and  _341
REMARK  141  A    between atoms: _344  and  _346
REMARK  142  A    between atoms: _346  and  _347
REMARK  143  A    between atoms: _349  and  _351
REMARK  144  A    between atoms: _351  and  _352
REMARK  145  A    between atoms: _355  and  _357
REMARK  146  A    between atoms: _357  and  _358
REMARK  147  A    between atoms: _357  and  _360
REMARK  148  A    between atoms: _360  and  _361
REMARK  149  A    between atoms: _364  and  _366
REMARK  150  A    between atoms: _366  and  _367
REMARK  151  A    between atoms: _366  and  _369
REMARK  152  A    between atoms: _369  and  _370
REMARK  153  A    between atoms: _370  and  _372
REMARK  154  A    between atoms: _373  and  _375
REMARK  155  A    between atoms: _375  and  _376
REMARK  156  A    between atoms: _375  and  _378
REMARK  157  A    between atoms: _378  and  _379
REMARK  158  A    between atoms: _382  and  _384
REMARK  159  A    between atoms: _384  and  _385
REMARK  160  A    between atoms: _384  and  _387
REMARK  161  A    between atoms: _390  and  _392
REMARK  162  A    between atoms: _392  and  _393
REMARK  163  A    between atoms: _392  and  _395
REMARK  164  A    between atoms: _395  and  _396
REMARK  165  A    between atoms: _396  and  _397
REMARK  166  A    between atoms: _397  and  _398
REMARK  167  A    between atoms: _398  and  _399
REMARK  168  A    between atoms: _403  and  _405
REMARK  169  A    between atoms: _405  and  _406
REMARK  170  A    between atoms: _405  and  _408
REMARK  171  A    between atoms: _408  and  _409
REMARK  172  A    between atoms: _409  and  _410
REMARK  173  A    between atoms: _412  and  _414
REMARK  174  A    between atoms: _414  and  _415
REMARK  175  A    between atoms: _414  and  _417
REMARK  176  A    between atoms: _417  and  _418
REMARK  177  A    between atoms: _421  and  _423
REMARK  178  A    between atoms: _423  and  _424
REMARK  179  A    between atoms: _426  and  _428
REMARK  180  A    between atoms: _428  and  _429
REMARK  181  A    between atoms: _431  and  _433
REMARK  182  A    between atoms: _433  and  _434
REMARK  183  A    between atoms: _433  and  _436
REMARK  184  A    between atoms: _436  and  _437
REMARK  185  A    between atoms: _440  and  _442
REMARK  186  A    between atoms: _442  and  _443
REMARK  187  A    between atoms: _445  and  _447
REMARK  188  A    between atoms: _447  and  _448
REMARK  189  A    between atoms: _450  and  _452
REMARK  190  A    between atoms: _452  and  _453
REMARK  191  A    between atoms: _452  and  _455
REMARK  192  A    between atoms: _455  and  _456
REMARK  193  A    between atoms: _459  and  _461
REMARK  194  A    between atoms: _461  and  _462
REMARK  195  A    between atoms: _461  and  _464
REMARK  196  A    between atoms: _464  and  _465
REMARK  197  A    between atoms: _468  and  _470
REMARK  198  A    between atoms: _470  and  _471
REMARK  199  A    between atoms: _470  and  _473
REMARK  200  A    between atoms: _473  and  _474
REMARK  201  A    between atoms: _478  and  _479
REMARK  202  A    between atoms: _484  and  _486
REMARK  203  A    between atoms: _486  and  _487
REMARK  204  A    between atoms: _486  and  _489
REMARK  205  A    between atoms: _492  and  _494
REMARK  206  A    between atoms: _494  and  _495
REMARK  207  A    between atoms: _494  and  _497
REMARK  208  A    between atoms: _497  and  _498
REMARK  209  A    between atoms: _503  and  _505
REMARK  210  A    between atoms: _505  and  _506
REMARK  211  A    between atoms: _505  and  _508
REMARK  212  A    between atoms: _508  and  _509
REMARK  213  A    between atoms: _512  and  _514
REMARK  214  A    between atoms: _514  and  _515
REMARK  215  A    between atoms: _514  and  _517
REMARK  216  A    between atoms: _517  and  _518
REMARK  217  A    between atoms: _521  and  _523
REMARK  218  A    between atoms: _523  and  _524
REMARK  219  A    between atoms: _526  and  _528
REMARK  220  A    between atoms: _528  and  _529
REMARK  221  A    between atoms: _528  and  _531
REMARK  222  A    between atoms: _531  and  _532
REMARK  223  A    between atoms: _532  and  _533
REMARK  224  A    between atoms: _533  and  _534
REMARK  225  A    between atoms: _543  and  _545
REMARK  226  A    between atoms: _545  and  _546
REMARK  227  A    between atoms: _545  and  _548
REMARK  228  A    between atoms: _548  and  _549
REMARK                            x       y       z     vdW  Elec       q    Type
REMARK                         _______ _______ _______ _____ _____    ______ ____
ROOT
ATOM      1  C   GLY A   5     -13.302  18.320  29.514  0.00  0.00    +0.243 C 
ATOM      2  N   ALA A   6     -12.614  19.050  30.386  0.00  0.00    -0.297 N 
ATOM      3  H   ALA A   6     -12.564  20.080  30.250  0.00  0.00    +0.150 HD
ATOM      4  O   GLY A   5     -13.394  17.104  29.598  0.00  0.00    -0.273 OA
ENDROOT
BRANCH   2   5
ATOM      5  CA  ALA A   6     -11.930  18.459  31.523  0.00  0.00    +0.149 C 
ATOM      6  CB  ALA A   6     -10.531  19.065  31.629  0.00  0.00    +0.031 C 
BRANCH   5   7
ATOM      7  C   ALA A   6     -12.728  18.734  32.820  0.00  0.00    +0.241 C 
ATOM      8  N   ASP A   7     -13.131  17.675  33.517  0.00  0.00    -0.297 N 
ATOM      9  H   ASP A   7     -12.987  16.726  33.117  0.00  0.00    +0.150 HD
ATOM     10  O   ALA A   6     -12.964  19.898  33.177  0.00  0.00    -0.273 OA
BRANCH   8  11
ATOM     11  CA  ASP A   7     -13.776  17.802  34.839  0.00  0.00    +0.160 C 
BRANCH  11  12
ATOM     12  C   ASP A   7     -12.828  18.466  35.846  0.00  0.00    +0.241 C 
ATOM     13  O   ASP A   7     -13.251  19.325  36.648  0.00  0.00    -0.273 OA
ATOM     14  N   UNK A   8     -11.552  18.069  35.757  0.00  0.00    -0.297 N 
ATOM     15  H   UNK A   8     -11.289  17.459  34.957  0.00  0.00    +0.150 HD
BRANCH  14  16
ATOM     16  C   UNK A   8     -10.502  18.436  36.710  0.00  0.00    +0.160 C 
BRANCH  16  17
ATOM     17  C   UNK A   8      -9.386  19.277  36.080  0.00  0.00    +0.241 C 
ATOM     18  N   THR A   9      -8.697  20.019  36.933  0.00  0.00    -0.295 N 
ATOM     19  H   THR A   9      -9.040  20.141  37.907  0.00  0.00    +0.150 HD
ATOM     20  O   UNK A   8      -9.152  19.266  34.852  0.00  0.00    -0.273 OA
BRANCH  18  21
ATOM     21  CA  THR A   9      -7.468  20.662  36.516  0.00  0.00    +0.176 C 
BRANCH  21  22
ATOM     22  C   THR A   9      -6.281  19.718  36.640  0.00  0.00    +0.243 C 
ATOM     23  O   THR A   9      -6.109  19.047  37.666  0.00  0.00    -0.273 OA
ATOM     24  N   VAL A  10      -5.484  19.628  35.583  0.00  0.00    -0.298 N 
ATOM     25  H   VAL A  10      -5.686  20.199  34.737  0.00  0.00    +0.150 HD
BRANCH  24  26
ATOM     26  CA  VAL A  10      -4.316  18.729  35.593  0.00  0.00    +0.137 C 
BRANCH  26  27
ATOM     27  CB  VAL A  10      -4.469  17.483  34.645  0.00  0.00    +0.026 C 
ATOM     28  CG2 VAL A  10      -3.521  16.371  35.082  0.00  0.00    +0.002 C 
ATOM     29  CG1 VAL A  10      -5.876  17.000  34.609  0.00  0.00    +0.002 C 
ENDBRANCH  26  27
BRANCH  26  30
ATOM     30  C   VAL A  10      -3.130  19.484  35.054  0.00  0.00    +0.227 C 
ATOM     31  O   VAL A  10      -3.157  19.937  33.915  0.00  0.00    -0.286 OA
ENDBRANCH  26  30
ENDBRANCH  24  26
ENDBRANCH  21  22
BRANCH  21  32
ATOM     32  CB  THR A   9      -7.296  21.895  37.352  0.00  0.00    +0.137 C 
ATOM     33  CG2 THR A   9      -5.872  22.554  37.170  0.00  0.00    +0.034 C 
BRANCH  32  34
ATOM     34  OG1 THR A   9      -8.361  22.793  37.005  0.00  0.00    -0.382 OA
ATOM     35  HG1 THR A   9      -9.231  22.360  37.195  0.00  0.00    +0.210 HD
ENDBRANCH  32  34
ENDBRANCH  21  32
ENDBRANCH  18  21
ENDBRANCH  16  17
BRANCH  16  36
ATOM     36  C   UNK A   8      -9.863  17.180  37.337  0.00  0.00    +0.142 C 
BRANCH  36  37
ATOM     37  C   UNK A   8     -10.872  16.109  37.687  0.00  0.00    +0.357 C 
ATOM     38  O   UNK A   8     -12.013  16.454  38.062  0.00  0.00    -0.247 OA
BRANCH  37  39
ATOM     39  O   UNK A   8     -10.520  14.909  37.589  0.00  0.00    -0.265 OA
ATOM     40  O   UNK A   8     -11.167  14.012  37.118  0.00  0.00    +0.031 OA
ENDBRANCH  37  39
ENDBRANCH  36  37
ENDBRANCH  16  36
ENDBRANCH  14  16
ENDBRANCH  11  12
BRANCH  11  41
ATOM     41  CB  ASP A   7     -14.157  16.417  35.379  0.00  0.00    +0.143 C 
BRANCH  41  42
ATOM     42  CG  ASP A   7     -15.239  15.737  34.564  0.00  0.00    +0.367 C 
ATOM     43  OD2 ASP A   7     -15.439  14.526  34.795  0.00  0.00    -0.246 OA
ATOM     44  OD1 ASP A   7     -15.896  16.389  33.699  0.00  0.00    -0.246 OA
ENDBRANCH  41  42
ENDBRANCH  11  41
ENDBRANCH   8  11
ENDBRANCH   5   7
ENDBRANCH   2   5
BRANCH   1  45
ATOM     45  CA  GLY A   5     -13.981  19.070  28.366  0.00  0.00    +0.176 C 
BRANCH  45  48
ATOM     46  C   THR A   4     -14.683  21.308  29.132  0.00  0.00    +0.243 C 
ATOM     47  O   THR A   4     -15.640  20.865  29.789  0.00  0.00    -0.273 OA
ATOM     48  N   GLY A   5     -13.865  20.538  28.405  0.00  0.00    -0.295 N 
ATOM     49  H   GLY A   5     -13.117  20.994  27.845  0.00  0.00    +0.150 HD
BRANCH  46  50
ATOM     50  CA  THR A   4     -14.369  22.814  29.165  0.00  0.00    +0.176 C 
BRANCH  50  53
ATOM     51  C   ASP A   3     -11.953  22.729  29.447  0.00  0.00    +0.241 C 
ATOM     52  O   ASP A   3     -12.039  22.027  30.455  0.00  0.00    -0.273 OA
ATOM     53  N   THR A   4     -13.013  23.141  28.757  0.00  0.00    -0.295 N 
ATOM     54  H   THR A   4     -12.867  23.713  27.901  0.00  0.00    +0.150 HD
BRANCH  51  55
ATOM     55  CA  ASP A   3     -10.586  23.166  28.895  0.00  0.00    +0.160 C 
BRANCH  55  57
ATOM     56  C   LEU A   2      -9.773  25.437  28.671  0.00  0.00    +0.241 C 
ATOM     57  N   ASP A   3     -10.132  24.426  29.451  0.00  0.00    -0.297 N 
ATOM     58  H   ASP A   3     -10.087  24.539  30.484  0.00  0.00    +0.150 HD
ATOM     59  O   LEU A   2     -10.098  25.514  27.475  0.00  0.00    -0.273 OA
BRANCH  56  60
ATOM     60  CA  LEU A   2      -8.962  26.546  29.347  0.00  0.00    +0.149 C 
BRANCH  60  63
ATOM     61  C   LEU A   1      -6.733  25.594  29.139  0.00  0.00    +0.238 C 
ATOM     62  O   LEU A   1      -6.968  24.777  30.039  0.00  0.00    -0.274 OA
ATOM     63  N   LEU A   2      -7.593  26.561  28.810  0.00  0.00    -0.297 N 
ATOM     64  H   LEU A   2      -7.294  27.326  28.173  0.00  0.00    +0.150 HD
BRANCH  61  65
ATOM     65  CA  LEU A   1      -5.415  25.537  28.373  0.00  0.00    +0.145 C 
BRANCH  65  66
ATOM     66  N   LEU A   1      -4.335  25.542  29.329  0.00  0.00    -0.238 NA
ATOM     67  H   LEU A   1      -4.044  24.640  29.757  0.00  0.00    +0.142 HD
ENDBRANCH  65  66
BRANCH  65  68
ATOM     68  CB  LEU A   1      -5.283  24.238  27.545  0.00  0.00    +0.026 C 
BRANCH  68  69
ATOM     69  CG  LEU A   1      -6.181  23.866  26.380  0.00  0.00    +0.002 C 
ATOM     70  CD2 LEU A   1      -5.917  22.393  26.002  0.00  0.00    +0.000 C 
ATOM     71  CD1 LEU A   1      -5.928  24.798  25.193  0.00  0.00    +0.000 C 
ENDBRANCH  68  69
ENDBRANCH  65  68
ENDBRANCH  61  65
ENDBRANCH  60  63
BRANCH  60  72
ATOM     72  CB  LEU A   2      -9.644  27.893  29.207  0.00  0.00    +0.029 C 
BRANCH  72  73
ATOM     73  CG  LEU A   2      -8.929  29.142  29.749  0.00  0.00    +0.002 C 
ATOM     74  CD2 LEU A   2      -8.743  29.081  31.233  0.00  0.00    +0.000 C 
ATOM     75  CD1 LEU A   2      -9.752  30.348  29.370  0.00  0.00    +0.000 C 
ENDBRANCH  72  73
ENDBRANCH  60  72
ENDBRANCH  56  60
ENDBRANCH  55  57
BRANCH  55  76
ATOM     76  CB  ASP A   3      -9.516  22.082  29.122  0.00  0.00    +0.143 C 
BRANCH  76  77
ATOM     77  CG  ASP A   3      -9.839  20.774  28.419  0.00  0.00    +0.367 C 
ATOM     78  OD2 ASP A   3      -8.952  19.885  28.389  0.00  0.00    -0.246 OA
ATOM     79  OD1 ASP A   3     -10.961  20.643  27.874  0.00  0.00    -0.246 OA
ENDBRANCH  76  77
ENDBRANCH  55  76
ENDBRANCH  51  55
ENDBRANCH  50  53
BRANCH  50  80
ATOM     80  CB  THR A   4     -15.407  23.584  28.332  0.00  0.00    +0.137 C 
ATOM     81  CG2 THR A   4     -15.154  25.089  28.422  0.00  0.00    +0.034 C 
BRANCH  80  82
ATOM     82  OG1 THR A   4     -15.335  23.164  26.956  0.00  0.00    -0.382 OA
ATOM     83  HG1 THR A   4     -15.522  22.194  26.898  0.00  0.00    +0.210 HD
ENDBRANCH  80  82
ENDBRANCH  50  80
ENDBRANCH  46  50
ENDBRANCH  45  48
ENDBRANCH   1  45
TORSDOF 36
REMARK  Name = ../refined-set-2016/4ll3/4ll3_pocket.pdb
REMARK  228 active torsions:
REMARK  status: ('A' for Active; 'I' for Inactive)
REMARK    1  A    between atoms: _1  and  _3
REMARK    2  A    between atoms: _3  and  _4
REMARK    3  A    between atoms: _3  and  _6
REMARK    4  A    between atoms: _6  and  _7
REMARK    5  A    between atoms: _7  and  _8
REMARK    6  A    between atoms: _8  and  _9
REMARK    7  A    between atoms: _18  and  _20
REMARK    8  A    between atoms: _20  and  _21
REMARK    9  A    between atoms: _20  and  _23
REMARK   10  A    between atoms: _23  and  _24
REMARK   11  A    between atoms: _27  and  _29
REMARK   12  A    between atoms: _29  and  _30
REMARK   13  A    between atoms: _29  and  _32
REMARK   14  A    between atoms: _32  and  _33
REMARK   15  A    between atoms: _36  and  _38
REMARK   16  A    between atoms: _38  and  _39
REMARK   17  A    between atoms: _38  and  _41
REMARK   18  A    between atoms: _41  and  _42
REMARK   19  A    between atoms: _45  and  _47
REMARK   20  A    between atoms: _47  and  _48
REMARK   21  A    between atoms: _47  and  _50
REMARK   22  A    between atoms: _50  and  _51
REMARK   23  A    between atoms: _54  and  _56
REMARK   24  A    between atoms: _56  and  _57
REMARK   25  A    between atoms: _59  and  _61
REMARK   26  A    between atoms: _61  and  _62
REMARK   27  A    between atoms: _65  and  _67
REMARK   28  A    between atoms: _67  and  _68
REMARK   29  A    between atoms: _67  and  _70
REMARK   30  A    between atoms: _70  and  _71
REMARK   31  A    between atoms: _74  and  _76
REMARK   32  A    between atoms: _76  and  _77
REMARK   33  A    between atoms: _76  and  _79
REMARK   34  A    between atoms: _79  and  _80
REMARK   35  A    between atoms: _80  and  _82
REMARK   36  A    between atoms: _83  and  _85
REMARK   37  A    between atoms: _85  and  _86
REMARK   38  A    between atoms: _85  and  _88
REMARK   39  A    between atoms: _88  and  _89
REMARK   40  A    between atoms: _92  and  _94
REMARK   41  A    between atoms: _94  and  _95
REMARK   42  A    between atoms: _94  and  _97
REMARK   43  A    between atoms: _100  and  _102
REMARK   44  A    between atoms: _102  and  _103
REMARK   45  A    between atoms: _102  and  _105
REMARK   46  A    between atoms: _105  and  _106
REMARK   47  A    between atoms: _106  and  _107
REMARK   48  A    between atoms: _107  and  _108
REMARK   49  A    between atoms: _108  and  _109
REMARK   50  A    between atoms: _113  and  _115
REMARK   51  A    between atoms: _115  and  _116
REMARK   52  A    between atoms: _115  and  _118
REMARK   53  A    between atoms: _118  and  _119
REMARK   54  A    between atoms: _119  and  _120
REMARK   55  A    between atoms: _122  and  _124
REMARK   56  A    between atoms: _124  and  _125
REMARK   57  A    between atoms: _124  and  _127
REMARK   58  A    between atoms: _127  and  _128
REMARK   59  A    between atoms: _131  and  _133
REMARK   60  A    between atoms: _133  and  _134
REMARK   61  A    between atoms: _136  and  _138
REMARK   62  A    between atoms: _138  and  _139
REMARK   63  A    between atoms: _141  and  _143
REMARK   64  A    between atoms: _143  and  _144
REMARK   65  A    between atoms: _143  and  _146
REMARK   66  A    between atoms: _146  and  _147
REMARK   67  A    between atoms: _150  and  _152
REMARK   68  A    between atoms: _152  and  _153
REMARK   69  A    between atoms: _155  and  _157
REMARK   70  A    between atoms: _157  and  _158
REMARK   71  A    between atoms: _160  and  _162
REMARK   72  A    between atoms: _162  and  _163
REMARK   73  A    between atoms: _162  and  _165
REMARK   74  A    between atoms: _165  and  _166
REMARK   75  A    between atoms: _172  and  _174
REMARK   76  A    between atoms: _174  and  _175
REMARK   77  A    between atoms: _174  and  _177
REMARK   78  A    between atoms: _177  and  _178
REMARK   79  A    between atoms: _181  and  _183
REMARK   80  A    between atoms: _183  and  _184
REMARK   81  A    between atoms: _183  and  _186
REMARK   82  A    between atoms: _189  and  _191
REMARK   83  A    between atoms: _191  and  _192
REMARK   84  A    between atoms: _191  and  _194
REMARK   85  A    between atoms: _194  and  _195
REMARK   86  A    between atoms: _199  and  _200
REMARK   87  A    between atoms: _205  and  _207
REMARK   88  A    between atoms: _207  and  _208
REMARK   89  A    between atoms: _207  and  _210
REMARK   90  A    between atoms: _210  and  _211
REMARK   91  A    between atoms: _215  and  _216
REMARK   92  A    between atoms: _221  and  _223
REMARK   93  A    between atoms: _223  and  _224
REMARK   94  A    between atoms: _223  and  _226
REMARK   95  A    between atoms: _229  and  _231
REMARK   96  A    between atoms: _231  and  _232
REMARK   97  A    between atoms: _231  and  _234
REMARK   98  A    between atoms: _234  and  _235
REMARK   99  A    between atoms: _240  and  _242
REMARK  100  A    between atoms: _242  and  _243
REMARK  101  A    between atoms: _242  and  _245
REMARK  102  A    between atoms: _245  and  _246
REMARK  103  A    between atoms: _249  and  _251
REMARK  104  A    between atoms: _251  and  _252
REMARK  105  A    between atoms: _251  and  _254
REMARK  106  A    between atoms: _254  and  _255
REMARK  107  A    between atoms: _258  and  _260
REMARK  108  A    between atoms: _260  and  _261
REMARK  109  A    between atoms: _263  and  _265
REMARK  110  A    between atoms: _265  and  _266
REMARK  111  A    between atoms: _265  and  _268
REMARK  112  A    between atoms: _268  and  _269
REMARK  113  A    between atoms: _269  and  _270
REMARK  114  A    between atoms: _270  and  _271
REMARK  115  A    between atoms: _280  and  _282
REMARK  116  A    between atoms: _282  and  _283
REMARK  117  A    between atoms: _282  and  _285
REMARK  118  A    between atoms: _285  and  _286
REMARK  119  A    between atoms: _291  and  _293
REMARK  120  A    between atoms: _293  and  _294
REMARK  121  A    between atoms: _293  and  _296
REMARK  122  A    between atoms: _296  and  _297
REMARK  123  A    between atoms: _297  and  _298
REMARK  124  A    between atoms: _298  and  _299
REMARK  125  A    between atoms: _308  and  _310
REMARK  126  A    between atoms: _310  and  _311
REMARK  127  A    between atoms: _310  and  _313
REMARK  128  A    between atoms: _313  and  _314
REMARK  129  A    between atoms: _317  and  _319
REMARK  130  A    between atoms: _319  and  _320
REMARK  131  A    between atoms: _319  and  _322
REMARK  132  A    between atoms: _322  and  _323
REMARK  133  A    between atoms: _326  and  _328
REMARK  134  A    between atoms: _328  and  _329
REMARK  135  A    between atoms: _328  and  _331
REMARK  136  A    between atoms: _331  and  _332
REMARK  137  A    between atoms: _335  and  _337
REMARK  138  A    between atoms: _337  and  _338
REMARK  139  A    between atoms: _337  and  _340
REMARK  140  A    between atoms: _340  and  _341
REMARK  141  A    between atoms: _344  and  _346
REMARK  142  A    between atoms: _346  and  _347
REMARK  143  A    between atoms: _349  and  _351
REMARK  144  A    between atoms: _351  and  _352
REMARK  145  A    between atoms: _355  and  _357
REMARK  146  A    between atoms: _357  and  _358
REMARK  147  A    between atoms: _357  and  _360
REMARK  148  A    between atoms: _360  and  _361
REMARK  149  A    between atoms: _364  and  _366
REMARK  150  A    between atoms: _366  and  _367
REMARK  151  A    between atoms: _366  and  _369
REMARK  152  A    between atoms: _369  and  _370
REMARK  153  A    between atoms: _370  and  _372
REMARK  154  A    between atoms: _373  and  _375
REMARK  155  A    between atoms: _375  and  _376
REMARK  156  A    between atoms: _375  and  _378
REMARK  157  A    between atoms: _378  and  _379
REMARK  158  A    between atoms: _382  and  _384
REMARK  159  A    between atoms: _384  and  _385
REMARK  160  A    between atoms: _384  and  _387
REMARK  161  A    between atoms: _390  and  _392
REMARK  162  A    between atoms: _392  and  _393
REMARK  163  A    between atoms: _392  and  _395
REMARK  164  A    between atoms: _395  and  _396
REMARK  165  A    between atoms: _396  and  _397
REMARK  166  A    between atoms: _397  and  _398
REMARK  167  A    between atoms: _398  and  _399
REMARK  168  A    between atoms: _403  and  _405
REMARK  169  A    between atoms: _405  and  _406
REMARK  170  A    between atoms: _405  and  _408
REMARK  171  A    between atoms: _408  and  _409
REMARK  172  A    between atoms: _409  and  _410
REMARK  173  A    between atoms: _412  and  _414
REMARK  174  A    between atoms: _414  and  _415
REMARK  175  A    between atoms: _414  and  _417
REMARK  176  A    between atoms: _417  and  _418
REMARK  177  A    between atoms: _421  and  _423
REMARK  178  A    between atoms: _423  and  _424
REMARK  179  A    between atoms: _426  and  _428
REMARK  180  A    between atoms: _428  and  _429
REMARK  181  A    between atoms: _431  and  _433
REMARK  182  A    between atoms: _433  and  _434
REMARK  183  A    between atoms: _433  and  _436
REMARK  184  A    between atoms: _436  and  _437
REMARK  185  A    between atoms: _440  and  _442
REMARK  186  A    between atoms: _442  and  _443
REMARK  187  A    between atoms: _445  and  _447
REMARK  188  A    between atoms: _447  and  _448
REMARK  189  A    between atoms: _450  and  _452
REMARK  190  A    between atoms: _452  and  _453
REMARK  191  A    between atoms: _452  and  _455
REMARK  192  A    between atoms: _455  and  _456
REMARK  193  A    between atoms: _459  and  _461
REMARK  194  A    between atoms: _461  and  _462
REMARK  195  A    between atoms: _461  and  _464
REMARK  196  A    between atoms: _464  and  _465
REMARK  197  A    between atoms: _468  and  _470
REMARK  198  A    between atoms: _470  and  _471
REMARK  199  A    between atoms: _470  and  _473
REMARK  200  A    between atoms: _473  and  _474
REMARK  201  A    between atoms: _478  and  _479
REMARK  202  A    between atoms: _484  and  _486
REMARK  203  A    between atoms: _486  and  _487
REMARK  204  A    between atoms: _486  and  _489
REMARK  205  A    between atoms: _492  and  _494
REMARK  206  A    between atoms: _494  and  _495
REMARK  207  A    between atoms: _494  and  _497
REMARK  208  A    between atoms: _497  and  _498
REMARK  209  A    between atoms: _503  and  _505
REMARK  210  A    between atoms: _505  and  _506
REMARK  211  A    between atoms: _505  and  _508
REMARK  212  A    between atoms: _508  and  _509
REMARK  213  A    between atoms: _512  and  _514
REMARK  214  A    between atoms: _514  and  _515
REMARK  215  A    between atoms: _514  and  _517
REMARK  216  A    between atoms: _517  and  _518
REMARK  217  A    between atoms: _521  and  _523
REMARK  218  A    between atoms: _523  and  _524
REMARK  219  A    between atoms: _526  and  _528
REMARK  220  A    between atoms: _528  and  _529
REMARK  221  A    between atoms: _528  and  _531
REMARK  222  A    between atoms: _531  and  _532
REMARK  223  A    between atoms: _532  and  _533
REMARK  224  A    between atoms: _533  and  _534
REMARK  225  A    between atoms: _543  and  _545
REMARK  226  A    between atoms: _545  and  _546
REMARK  227  A    between atoms: _545  and  _548
REMARK  228  A    between atoms: _548  and  _549
REMARK                            x       y       z     vdW  Elec       q    Type
REMARK                         _______ _______ _______ _____ _____    ______ ____
ROOT
ATOM      1  C   ILE A   3      -7.594   9.458  34.123  0.00  0.00    +0.241 C 
ATOM      2  O   ILE A   3      -6.503   9.143  33.648  0.00  0.00    -0.273 OA
ATOM      3  N   GLY A   4      -8.724   9.391  33.437  0.00  0.00    -0.295 N 
ATOM      4  H   GLY A   4      -9.608   9.739  33.860  0.00  0.00    +0.150 HD
ENDROOT
BRANCH   1   5
ATOM      5  CA  ILE A   3      -7.713   9.960  35.552  0.00  0.00    +0.149 C 
BRANCH   5   8
ATOM      6  C   MET A   2      -7.092   8.686  37.530  0.00  0.00    +0.241 C 
ATOM      7  O   MET A   2      -8.246   8.689  37.974  0.00  0.00    -0.273 OA
ATOM      8  N   ILE A   3      -6.739   9.293  36.395  0.00  0.00    -0.297 N 
ATOM      9  H   ILE A   3      -5.740   9.288  36.107  0.00  0.00    +0.150 HD
BRANCH   6  10
ATOM     10  CA  MET A   2      -5.970   8.016  38.309  0.00  0.00    +0.149 C 
BRANCH  10  13
ATOM     11  C   LYS A   1      -5.077   8.830  40.417  0.00  0.00    +0.238 C 
ATOM     12  O   LYS A   1      -3.960   9.016  39.924  0.00  0.00    -0.274 OA
ATOM     13  N   MET A   2      -6.084   8.299  39.736  0.00  0.00    -0.297 N 
ATOM     14  H   MET A   2      -6.973   8.080  40.229  0.00  0.00    +0.150 HD
BRANCH  11  15
ATOM     15  CA  LYS A   1      -5.358   9.196  41.870  0.00  0.00    +0.145 C 
BRANCH  15  16
ATOM     16  N   LYS A   1      -4.101   9.191  42.596  0.00  0.00    -0.238 NA
ATOM     17  H   LYS A   1      -3.217   9.344  42.069  0.00  0.00    +0.142 HD
ENDBRANCH  15  16
BRANCH  15  18
ATOM     18  CB  LYS A   1      -5.979  10.595  41.933  0.00  0.00    +0.026 C 
BRANCH  18  19
ATOM     19  CG  LYS A   1      -7.490  10.606  41.970  0.00  0.00    -0.000 C 
BRANCH  19  20
ATOM     20  CD  LYS A   1      -8.017  11.885  41.353  0.00  0.00    -0.024 C 
BRANCH  20  21
ATOM     21  CE  LYS A   1      -9.511  11.784  41.065  0.00  0.00    -0.086 C 
BRANCH  21  22
ATOM     22  NZ  LYS A   1      -9.962  12.937  40.218  0.00  0.00    +0.380 N 
ATOM     23  HZ1 LYS A   1      -9.774  13.828  40.719  0.00  0.00    -0.089 HD
ATOM     24  HZ2 LYS A   1     -10.982  12.851  40.032  0.00  0.00    -0.089 HD
ATOM     25  HZ3 LYS A   1      -9.442  12.928  39.317  0.00  0.00    -0.089 HD
ENDBRANCH  21  22
ENDBRANCH  20  21
ENDBRANCH  19  20
ENDBRANCH  18  19
ENDBRANCH  15  18
ENDBRANCH  11  15
ENDBRANCH  10  13
BRANCH  10  26
ATOM     26  CB  MET A   2      -5.904   6.514  38.050  0.00  0.00    +0.041 C 
BRANCH  26  27
ATOM     27  CG  MET A   2      -4.570   5.910  38.465  0.00  0.00    +0.060 C 
BRANCH  27  28
ATOM     28  SD  MET A   2      -4.263   4.297  37.764  0.00  0.00    -0.139 S 
ATOM     29  CE  MET A   2      -4.452   3.260  39.222  0.00  0.00    +0.069 C 
ENDBRANCH  27  28
ENDBRANCH  26  27
ENDBRANCH  10  26
ENDBRANCH   6  10
ENDBRANCH   5   8
BRANCH   5  30
ATOM     30  CB  ILE A   3      -7.582  11.510  35.572  0.00  0.00    +0.027 C 
ATOM     31  CG2 ILE A   3      -7.993  12.063  36.951  0.00  0.00    +0.002 C 
BRANCH  30  32
ATOM     32  CG1 ILE A   3      -6.165  11.944  35.168  0.00  0.00    +0.002 C 
ATOM     33  CD1 ILE A   3      -6.075  13.350  34.726  0.00  0.00    +0.000 C 
ENDBRANCH  30  32
ENDBRANCH   5  30
ENDBRANCH   1   5
BRANCH   3  34
ATOM     34  CA  GLY A   4      -8.735   8.836  32.101  0.00  0.00    +0.176 C 
BRANCH  34  35
ATOM     35  C   GLY A   4      -9.072   9.849  31.037  0.00  0.00    +0.243 C 
ATOM     36  O   GLY A   4      -9.907  10.747  31.231  0.00  0.00    -0.273 OA
ATOM     37  N   GLY A   5      -8.444   9.691  29.885  0.00  0.00    -0.295 N 
ATOM     38  H   GLY A   5      -7.670   9.002  29.799  0.00  0.00    +0.150 HD
BRANCH  37  39
ATOM     39  CA  GLY A   5      -8.841  10.482  28.750  0.00  0.00    +0.176 C 
BRANCH  39  40
ATOM     40  C   GLY A   5      -8.908   9.658  27.508  0.00  0.00    +0.243 C 
ATOM     41  O   GLY A   5      -9.142   8.454  27.558  0.00  0.00    -0.273 OA
ATOM     42  N   ILE A   6      -8.683  10.325  26.381  0.00  0.00    -0.297 N 
ATOM     43  H   ILE A   6      -8.564  11.357  26.421  0.00  0.00    +0.150 HD
BRANCH  42  44
ATOM     44  CA  ILE A   6      -8.599   9.662  25.106  0.00  0.00    +0.149 C 
BRANCH  44  45
ATOM     45  C   ILE A   6      -7.258   8.904  25.143  0.00  0.00    +0.241 C 
ATOM     46  O   ILE A   6      -6.233   9.456  25.509  0.00  0.00    -0.273 OA
ATOM     47  N   GLY A   7      -7.243   7.636  24.795  0.00  0.00    -0.295 N 
ATOM     48  H   GLY A   7      -8.114   7.159  24.487  0.00  0.00    +0.150 HD
BRANCH  47  49
ATOM     49  CA  GLY A   7      -5.960   6.904  24.851  0.00  0.00    +0.176 C 
BRANCH  49  50
ATOM     50  C   GLY A   7      -5.688   6.160  26.158  0.00  0.00    +0.243 C 
ATOM     51  N   GLY A   8      -6.469   6.452  27.189  0.00  0.00    -0.296 N 
ATOM     52  H   GLY A   8      -7.156   7.228  27.104  0.00  0.00    +0.150 HD
ATOM     53  O   GLY A   7      -4.787   5.335  26.231  0.00  0.00    -0.273 OA
BRANCH  51  54
ATOM     54  CA  GLY A   8      -6.383   5.711  28.431  0.00  0.00    +0.163 C 
BRANCH  54  55
ATOM     55  C   GLY A   8      -6.192   6.576  29.647  0.00  0.00    +0.229 C 
ATOM     56  O   GLY A   8      -6.640   7.710  29.686  0.00  0.00    -0.286 OA
ENDBRANCH  54  55
ENDBRANCH  51  54
ENDBRANCH  49  50
ENDBRANCH  47  49
ENDBRANCH  44  45
BRANCH  44  57
ATOM     57  CB  ILE A   6      -8.644  10.735  23.986  0.00  0.00    +0.027 C 
ATOM     58  CG2 ILE A   6      -7.319  10.870  23.273  0.00  0.00    +0.002 C 
BRANCH  57  59
ATOM     59  CG1 ILE A   6      -9.795  10.500  23.024  0.00  0.00    +0.002 C 
ATOM     60  CD1 ILE A   6     -10.076  11.691  22.144  0.00  0.00    +0.000 C 
ENDBRANCH  57  59
ENDBRANCH  44  57
ENDBRANCH  42  44
ENDBRANCH  39  40
ENDBRANCH  37  39
ENDBRANCH  34  35
ENDBRANCH   3  34
TORSDOF 28
REMARK  Name = ../refined-set-2016/4ll3/4ll3_pocket.pdb
REMARK  228 active torsions:
REMARK  status: ('A' for Active; 'I' for Inactive)
REMARK    1  A    between atoms: _1  and  _3
REMARK    2  A    between atoms: _3  and  _4
REMARK    3  A    between atoms: _3  and  _6
REMARK    4  A    between atoms: _6  and  _7
REMARK    5  A    between atoms: _7  and  _8
REMARK    6  A    between atoms: _8  and  _9
REMARK    7  A    between atoms: _18  and  _20
REMARK    8  A    between atoms: _20  and  _21
REMARK    9  A    between atoms: _20  and  _23
REMARK   10  A    between atoms: _23  and  _24
REMARK   11  A    between atoms: _27  and  _29
REMARK   12  A    between atoms: _29  and  _30
REMARK   13  A    between atoms: _29  and  _32
REMARK   14  A    between atoms: _32  and  _33
REMARK   15  A    between atoms: _36  and  _38
REMARK   16  A    between atoms: _38  and  _39
REMARK   17  A    between atoms: _38  and  _41
REMARK   18  A    between atoms: _41  and  _42
REMARK   19  A    between atoms: _45  and  _47
REMARK   20  A    between atoms: _47  and  _48
REMARK   21  A    between atoms: _47  and  _50
REMARK   22  A    between atoms: _50  and  _51
REMARK   23  A    between atoms: _54  and  _56
REMARK   24  A    between atoms: _56  and  _57
REMARK   25  A    between atoms: _59  and  _61
REMARK   26  A    between atoms: _61  and  _62
REMARK   27  A    between atoms: _65  and  _67
REMARK   28  A    between atoms: _67  and  _68
REMARK   29  A    between atoms: _67  and  _70
REMARK   30  A    between atoms: _70  and  _71
REMARK   31  A    between atoms: _74  and  _76
REMARK   32  A    between atoms: _76  and  _77
REMARK   33  A    between atoms: _76  and  _79
REMARK   34  A    between atoms: _79  and  _80
REMARK   35  A    between atoms: _80  and  _82
REMARK   36  A    between atoms: _83  and  _85
REMARK   37  A    between atoms: _85  and  _86
REMARK   38  A    between atoms: _85  and  _88
REMARK   39  A    between atoms: _88  and  _89
REMARK   40  A    between atoms: _92  and  _94
REMARK   41  A    between atoms: _94  and  _95
REMARK   42  A    between atoms: _94  and  _97
REMARK   43  A    between atoms: _100  and  _102
REMARK   44  A    between atoms: _102  and  _103
REMARK   45  A    between atoms: _102  and  _105
REMARK   46  A    between atoms: _105  and  _106
REMARK   47  A    between atoms: _106  and  _107
REMARK   48  A    between atoms: _107  and  _108
REMARK   49  A    between atoms: _108  and  _109
REMARK   50  A    between atoms: _113  and  _115
REMARK   51  A    between atoms: _115  and  _116
REMARK   52  A    between atoms: _115  and  _118
REMARK   53  A    between atoms: _118  and  _119
REMARK   54  A    between atoms: _119  and  _120
REMARK   55  A    between atoms: _122  and  _124
REMARK   56  A    between atoms: _124  and  _125
REMARK   57  A    between atoms: _124  and  _127
REMARK   58  A    between atoms: _127  and  _128
REMARK   59  A    between atoms: _131  and  _133
REMARK   60  A    between atoms: _133  and  _134
REMARK   61  A    between atoms: _136  and  _138
REMARK   62  A    between atoms: _138  and  _139
REMARK   63  A    between atoms: _141  and  _143
REMARK   64  A    between atoms: _143  and  _144
REMARK   65  A    between atoms: _143  and  _146
REMARK   66  A    between atoms: _146  and  _147
REMARK   67  A    between atoms: _150  and  _152
REMARK   68  A    between atoms: _152  and  _153
REMARK   69  A    between atoms: _155  and  _157
REMARK   70  A    between atoms: _157  and  _158
REMARK   71  A    between atoms: _160  and  _162
REMARK   72  A    between atoms: _162  and  _163
REMARK   73  A    between atoms: _162  and  _165
REMARK   74  A    between atoms: _165  and  _166
REMARK   75  A    between atoms: _172  and  _174
REMARK   76  A    between atoms: _174  and  _175
REMARK   77  A    between atoms: _174  and  _177
REMARK   78  A    between atoms: _177  and  _178
REMARK   79  A    between atoms: _181  and  _183
REMARK   80  A    between atoms: _183  and  _184
REMARK   81  A    between atoms: _183  and  _186
REMARK   82  A    between atoms: _189  and  _191
REMARK   83  A    between atoms: _191  and  _192
REMARK   84  A    between atoms: _191  and  _194
REMARK   85  A    between atoms: _194  and  _195
REMARK   86  A    between atoms: _199  and  _200
REMARK   87  A    between atoms: _205  and  _207
REMARK   88  A    between atoms: _207  and  _208
REMARK   89  A    between atoms: _207  and  _210
REMARK   90  A    between atoms: _210  and  _211
REMARK   91  A    between atoms: _215  and  _216
REMARK   92  A    between atoms: _221  and  _223
REMARK   93  A    between atoms: _223  and  _224
REMARK   94  A    between atoms: _223  and  _226
REMARK   95  A    between atoms: _229  and  _231
REMARK   96  A    between atoms: _231  and  _232
REMARK   97  A    between atoms: _231  and  _234
REMARK   98  A    between atoms: _234  and  _235
REMARK   99  A    between atoms: _240  and  _242
REMARK  100  A    between atoms: _242  and  _243
REMARK  101  A    between atoms: _242  and  _245
REMARK  102  A    between atoms: _245  and  _246
REMARK  103  A    between atoms: _249  and  _251
REMARK  104  A    between atoms: _251  and  _252
REMARK  105  A    between atoms: _251  and  _254
REMARK  106  A    between atoms: _254  and  _255
REMARK  107  A    between atoms: _258  and  _260
REMARK  108  A    between atoms: _260  and  _261
REMARK  109  A    between atoms: _263  and  _265
REMARK  110  A    between atoms: _265  and  _266
REMARK  111  A    between atoms: _265  and  _268
REMARK  112  A    between atoms: _268  and  _269
REMARK  113  A    between atoms: _269  and  _270
REMARK  114  A    between atoms: _270  and  _271
REMARK  115  A    between atoms: _280  and  _282
REMARK  116  A    between atoms: _282  and  _283
REMARK  117  A    between atoms: _282  and  _285
REMARK  118  A    between atoms: _285  and  _286
REMARK  119  A    between atoms: _291  and  _293
REMARK  120  A    between atoms: _293  and  _294
REMARK  121  A    between atoms: _293  and  _296
REMARK  122  A    between atoms: _296  and  _297
REMARK  123  A    between atoms: _297  and  _298
REMARK  124  A    between atoms: _298  and  _299
REMARK  125  A    between atoms: _308  and  _310
REMARK  126  A    between atoms: _310  and  _311
REMARK  127  A    between atoms: _310  and  _313
REMARK  128  A    between atoms: _313  and  _314
REMARK  129  A    between atoms: _317  and  _319
REMARK  130  A    between atoms: _319  and  _320
REMARK  131  A    between atoms: _319  and  _322
REMARK  132  A    between atoms: _322  and  _323
REMARK  133  A    between atoms: _326  and  _328
REMARK  134  A    between atoms: _328  and  _329
REMARK  135  A    between atoms: _328  and  _331
REMARK  136  A    between atoms: _331  and  _332
REMARK  137  A    between atoms: _335  and  _337
REMARK  138  A    between atoms: _337  and  _338
REMARK  139  A    between atoms: _337  and  _340
REMARK  140  A    between atoms: _340  and  _341
REMARK  141  A    between atoms: _344  and  _346
REMARK  142  A    between atoms: _346  and  _347
REMARK  143  A    between atoms: _349  and  _351
REMARK  144  A    between atoms: _351  and  _352
REMARK  145  A    between atoms: _355  and  _357
REMARK  146  A    between atoms: _357  and  _358
REMARK  147  A    between atoms: _357  and  _360
REMARK  148  A    between atoms: _360  and  _361
REMARK  149  A    between atoms: _364  and  _366
REMARK  150  A    between atoms: _366  and  _367
REMARK  151  A    between atoms: _366  and  _369
REMARK  152  A    between atoms: _369  and  _370
REMARK  153  A    between atoms: _370  and  _372
REMARK  154  A    between atoms: _373  and  _375
REMARK  155  A    between atoms: _375  and  _376
REMARK  156  A    between atoms: _375  and  _378
REMARK  157  A    between atoms: _378  and  _379
REMARK  158  A    between atoms: _382  and  _384
REMARK  159  A    between atoms: _384  and  _385
REMARK  160  A    between atoms: _384  and  _387
REMARK  161  A    between atoms: _390  and  _392
REMARK  162  A    between atoms: _392  and  _393
REMARK  163  A    between atoms: _392  and  _395
REMARK  164  A    between atoms: _395  and  _396
REMARK  165  A    between atoms: _396  and  _397
REMARK  166  A    between atoms: _397  and  _398
REMARK  167  A    between atoms: _398  and  _399
REMARK  168  A    between atoms: _403  and  _405
REMARK  169  A    between atoms: _405  and  _406
REMARK  170  A    between atoms: _405  and  _408
REMARK  171  A    between atoms: _408  and  _409
REMARK  172  A    between atoms: _409  and  _410
REMARK  173  A    between atoms: _412  and  _414
REMARK  174  A    between atoms: _414  and  _415
REMARK  175  A    between atoms: _414  and  _417
REMARK  176  A    between atoms: _417  and  _418
REMARK  177  A    between atoms: _421  and  _423
REMARK  178  A    between atoms: _423  and  _424
REMARK  179  A    between atoms: _426  and  _428
REMARK  180  A    between atoms: _428  and  _429
REMARK  181  A    between atoms: _431  and  _433
REMARK  182  A    between atoms: _433  and  _434
REMARK  183  A    between atoms: _433  and  _436
REMARK  184  A    between atoms: _436  and  _437
REMARK  185  A    between atoms: _440  and  _442
REMARK  186  A    between atoms: _442  and  _443
REMARK  187  A    between atoms: _445  and  _447
REMARK  188  A    between atoms: _447  and  _448
REMARK  189  A    between atoms: _450  and  _452
REMARK  190  A    between atoms: _452  and  _453
REMARK  191  A    between atoms: _452  and  _455
REMARK  192  A    between atoms: _455  and  _456
REMARK  193  A    between atoms: _459  and  _461
REMARK  194  A    between atoms: _461  and  _462
REMARK  195  A    between atoms: _461  and  _464
REMARK  196  A    between atoms: _464  and  _465
REMARK  197  A    between atoms: _468  and  _470
REMARK  198  A    between atoms: _470  and  _471
REMARK  199  A    between atoms: _470  and  _473
REMARK  200  A    between atoms: _473  and  _474
REMARK  201  A    between atoms: _478  and  _479
REMARK  202  A    between atoms: _484  and  _486
REMARK  203  A    between atoms: _486  and  _487
REMARK  204  A    between atoms: _486  and  _489
REMARK  205  A    between atoms: _492  and  _494
REMARK  206  A    between atoms: _494  and  _495
REMARK  207  A    between atoms: _494  and  _497
REMARK  208  A    between atoms: _497  and  _498
REMARK  209  A    between atoms: _503  and  _505
REMARK  210  A    between atoms: _505  and  _506
REMARK  211  A    between atoms: _505  and  _508
REMARK  212  A    between atoms: _508  and  _509
REMARK  213  A    between atoms: _512  and  _514
REMARK  214  A    between atoms: _514  and  _515
REMARK  215  A    between atoms: _514  and  _517
REMARK  216  A    between atoms: _517  and  _518
REMARK  217  A    between atoms: _521  and  _523
REMARK  218  A    between atoms: _523  and  _524
REMARK  219  A    between atoms: _526  and  _528
REMARK  220  A    between atoms: _528  and  _529
REMARK  221  A    between atoms: _528  and  _531
REMARK  222  A    between atoms: _531  and  _532
REMARK  223  A    between atoms: _532  and  _533
REMARK  224  A    between atoms: _533  and  _534
REMARK  225  A    between atoms: _543  and  _545
REMARK  226  A    between atoms: _545  and  _546
REMARK  227  A    between atoms: _545  and  _548
REMARK  228  A    between atoms: _548  and  _549
REMARK                            x       y       z     vdW  Elec       q    Type
REMARK                         _______ _______ _______ _____ _____    ______ ____
ROOT
ATOM      1  CA  ILE A   1      -2.605   8.488  33.801  0.00  0.00    +0.133 C 
ENDROOT
BRANCH   1   2
ATOM      2  N   ILE A   1      -3.880   8.147  33.146  0.00  0.00    -0.239 NA
ATOM      3  H   ILE A   1      -4.730   8.712  33.348  0.00  0.00    +0.142 HD
ENDBRANCH   1   2
BRANCH   1   4
ATOM      4  C   ILE A   1      -2.782   8.530  35.308  0.00  0.00    +0.224 C 
ATOM      5  O   ILE A   1      -3.852   8.811  35.812  0.00  0.00    -0.287 OA
ENDBRANCH   1   4
BRANCH   1   6
ATOM      6  CB  ILE A   1      -1.978   9.798  33.299  0.00  0.00    +0.023 C 
ATOM      7  CG2 ILE A   1      -1.558   9.653  31.822  0.00  0.00    +0.002 C 
BRANCH   6   8
ATOM      8  CG1 ILE A   1      -2.920  10.992  33.554  0.00  0.00    +0.002 C 
ATOM      9  CD1 ILE A   1      -2.236  12.359  33.499  0.00  0.00    +0.000 C 
ENDBRANCH   6   8
ENDBRANCH   1   6
TORSDOF 4
REMARK  Name = ../refined-set-2016/4ll3/4ll3_pocket.pdb
REMARK  228 active torsions:
REMARK  status: ('A' for Active; 'I' for Inactive)
REMARK    1  A    between atoms: _1  and  _3
REMARK    2  A    between atoms: _3  and  _4
REMARK    3  A    between atoms: _3  and  _6
REMARK    4  A    between atoms: _6  and  _7
REMARK    5  A    between atoms: _7  and  _8
REMARK    6  A    between atoms: _8  and  _9
REMARK    7  A    between atoms: _18  and  _20
REMARK    8  A    between atoms: _20  and  _21
REMARK    9  A    between atoms: _20  and  _23
REMARK   10  A    between atoms: _23  and  _24
REMARK   11  A    between atoms: _27  and  _29
REMARK   12  A    between atoms: _29  and  _30
REMARK   13  A    between atoms: _29  and  _32
REMARK   14  A    between atoms: _32  and  _33
REMARK   15  A    between atoms: _36  and  _38
REMARK   16  A    between atoms: _38  and  _39
REMARK   17  A    between atoms: _38  and  _41
REMARK   18  A    between atoms: _41  and  _42
REMARK   19  A    between atoms: _45  and  _47
REMARK   20  A    between atoms: _47  and  _48
REMARK   21  A    between atoms: _47  and  _50
REMARK   22  A    between atoms: _50  and  _51
REMARK   23  A    between atoms: _54  and  _56
REMARK   24  A    between atoms: _56  and  _57
REMARK   25  A    between atoms: _59  and  _61
REMARK   26  A    between atoms: _61  and  _62
REMARK   27  A    between atoms: _65  and  _67
REMARK   28  A    between atoms: _67  and  _68
REMARK   29  A    between atoms: _67  and  _70
REMARK   30  A    between atoms: _70  and  _71
REMARK   31  A    between atoms: _74  and  _76
REMARK   32  A    between atoms: _76  and  _77
REMARK   33  A    between atoms: _76  and  _79
REMARK   34  A    between atoms: _79  and  _80
REMARK   35  A    between atoms: _80  and  _82
REMARK   36  A    between atoms: _83  and  _85
REMARK   37  A    between atoms: _85  and  _86
REMARK   38  A    between atoms: _85  and  _88
REMARK   39  A    between atoms: _88  and  _89
REMARK   40  A    between atoms: _92  and  _94
REMARK   41  A    between atoms: _94  and  _95
REMARK   42  A    between atoms: _94  and  _97
REMARK   43  A    between atoms: _100  and  _102
REMARK   44  A    between atoms: _102  and  _103
REMARK   45  A    between atoms: _102  and  _105
REMARK   46  A    between atoms: _105  and  _106
REMARK   47  A    between atoms: _106  and  _107
REMARK   48  A    between atoms: _107  and  _108
REMARK   49  A    between atoms: _108  and  _109
REMARK   50  A    between atoms: _113  and  _115
REMARK   51  A    between atoms: _115  and  _116
REMARK   52  A    between atoms: _115  and  _118
REMARK   53  A    between atoms: _118  and  _119
REMARK   54  A    between atoms: _119  and  _120
REMARK   55  A    between atoms: _122  and  _124
REMARK   56  A    between atoms: _124  and  _125
REMARK   57  A    between atoms: _124  and  _127
REMARK   58  A    between atoms: _127  and  _128
REMARK   59  A    between atoms: _131  and  _133
REMARK   60  A    between atoms: _133  and  _134
REMARK   61  A    between atoms: _136  and  _138
REMARK   62  A    between atoms: _138  and  _139
REMARK   63  A    between atoms: _141  and  _143
REMARK   64  A    between atoms: _143  and  _144
REMARK   65  A    between atoms: _143  and  _146
REMARK   66  A    between atoms: _146  and  _147
REMARK   67  A    between atoms: _150  and  _152
REMARK   68  A    between atoms: _152  and  _153
REMARK   69  A    between atoms: _155  and  _157
REMARK   70  A    between atoms: _157  and  _158
REMARK   71  A    between atoms: _160  and  _162
REMARK   72  A    between atoms: _162  and  _163
REMARK   73  A    between atoms: _162  and  _165
REMARK   74  A    between atoms: _165  and  _166
REMARK   75  A    between atoms: _172  and  _174
REMARK   76  A    between atoms: _174  and  _175
REMARK   77  A    between atoms: _174  and  _177
REMARK   78  A    between atoms: _177  and  _178
REMARK   79  A    between atoms: _181  and  _183
REMARK   80  A    between atoms: _183  and  _184
REMARK   81  A    between atoms: _183  and  _186
REMARK   82  A    between atoms: _189  and  _191
REMARK   83  A    between atoms: _191  and  _192
REMARK   84  A    between atoms: _191  and  _194
REMARK   85  A    between atoms: _194  and  _195
REMARK   86  A    between atoms: _199  and  _200
REMARK   87  A    between atoms: _205  and  _207
REMARK   88  A    between atoms: _207  and  _208
REMARK   89  A    between atoms: _207  and  _210
REMARK   90  A    between atoms: _210  and  _211
REMARK   91  A    between atoms: _215  and  _216
REMARK   92  A    between atoms: _221  and  _223
REMARK   93  A    between atoms: _223  and  _224
REMARK   94  A    between atoms: _223  and  _226
REMARK   95  A    between atoms: _229  and  _231
REMARK   96  A    between atoms: _231  and  _232
REMARK   97  A    between atoms: _231  and  _234
REMARK   98  A    between atoms: _234  and  _235
REMARK   99  A    between atoms: _240  and  _242
REMARK  100  A    between atoms: _242  and  _243
REMARK  101  A    between atoms: _242  and  _245
REMARK  102  A    between atoms: _245  and  _246
REMARK  103  A    between atoms: _249  and  _251
REMARK  104  A    between atoms: _251  and  _252
REMARK  105  A    between atoms: _251  and  _254
REMARK  106  A    between atoms: _254  and  _255
REMARK  107  A    between atoms: _258  and  _260
REMARK  108  A    between atoms: _260  and  _261
REMARK  109  A    between atoms: _263  and  _265
REMARK  110  A    between atoms: _265  and  _266
REMARK  111  A    between atoms: _265  and  _268
REMARK  112  A    between atoms: _268  and  _269
REMARK  113  A    between atoms: _269  and  _270
REMARK  114  A    between atoms: _270  and  _271
REMARK  115  A    between atoms: _280  and  _282
REMARK  116  A    between atoms: _282  and  _283
REMARK  117  A    between atoms: _282  and  _285
REMARK  118  A    between atoms: _285  and  _286
REMARK  119  A    between atoms: _291  and  _293
REMARK  120  A    between atoms: _293  and  _294
REMARK  121  A    between atoms: _293  and  _296
REMARK  122  A    between atoms: _296  and  _297
REMARK  123  A    between atoms: _297  and  _298
REMARK  124  A    between atoms: _298  and  _299
REMARK  125  A    between atoms: _308  and  _310
REMARK  126  A    between atoms: _310  and  _311
REMARK  127  A    between atoms: _310  and  _313
REMARK  128  A    between atoms: _313  and  _314
REMARK  129  A    between atoms: _317  and  _319
REMARK  130  A    between atoms: _319  and  _320
REMARK  131  A    between atoms: _319  and  _322
REMARK  132  A    between atoms: _322  and  _323
REMARK  133  A    between atoms: _326  and  _328
REMARK  134  A    between atoms: _328  and  _329
REMARK  135  A    between atoms: _328  and  _331
REMARK  136  A    between atoms: _331  and  _332
REMARK  137  A    between atoms: _335  and  _337
REMARK  138  A    between atoms: _337  and  _338
REMARK  139  A    between atoms: _337  and  _340
REMARK  140  A    between atoms: _340  and  _341
REMARK  141  A    between atoms: _344  and  _346
REMARK  142  A    between atoms: _346  and  _347
REMARK  143  A    between atoms: _349  and  _351
REMARK  144  A    between atoms: _351  and  _352
REMARK  145  A    between atoms: _355  and  _357
REMARK  146  A    between atoms: _357  and  _358
REMARK  147  A    between atoms: _357  and  _360
REMARK  148  A    between atoms: _360  and  _361
REMARK  149  A    between atoms: _364  and  _366
REMARK  150  A    between atoms: _366  and  _367
REMARK  151  A    between atoms: _366  and  _369
REMARK  152  A    between atoms: _369  and  _370
REMARK  153  A    between atoms: _370  and  _372
REMARK  154  A    between atoms: _373  and  _375
REMARK  155  A    between atoms: _375  and  _376
REMARK  156  A    between atoms: _375  and  _378
REMARK  157  A    between atoms: _378  and  _379
REMARK  158  A    between atoms: _382  and  _384
REMARK  159  A    between atoms: _384  and  _385
REMARK  160  A    between atoms: _384  and  _387
REMARK  161  A    between atoms: _390  and  _392
REMARK  162  A    between atoms: _392  and  _393
REMARK  163  A    between atoms: _392  and  _395
REMARK  164  A    between atoms: _395  and  _396
REMARK  165  A    between atoms: _396  and  _397
REMARK  166  A    between atoms: _397  and  _398
REMARK  167  A    between atoms: _398  and  _399
REMARK  168  A    between atoms: _403  and  _405
REMARK  169  A    between atoms: _405  and  _406
REMARK  170  A    between atoms: _405  and  _408
REMARK  171  A    between atoms: _408  and  _409
REMARK  172  A    between atoms: _409  and  _410
REMARK  173  A    between atoms: _412  and  _414
REMARK  174  A    between atoms: _414  and  _415
REMARK  175  A    between atoms: _414  and  _417
REMARK  176  A    between atoms: _417  and  _418
REMARK  177  A    between atoms: _421  and  _423
REMARK  178  A    between atoms: _423  and  _424
REMARK  179  A    between atoms: _426  and  _428
REMARK  180  A    between atoms: _428  and  _429
REMARK  181  A    between atoms: _431  and  _433
REMARK  182  A    between atoms: _433  and  _434
REMARK  183  A    between atoms: _433  and  _436
REMARK  184  A    between atoms: _436  and  _437
REMARK  185  A    between atoms: _440  and  _442
REMARK  186  A    between atoms: _442  and  _443
REMARK  187  A    between atoms: _445  and  _447
REMARK  188  A    between atoms: _447  and  _448
REMARK  189  A    between atoms: _450  and  _452
REMARK  190  A    between atoms: _452  and  _453
REMARK  191  A    between atoms: _452  and  _455
REMARK  192  A    between atoms: _455  and  _456
REMARK  193  A    between atoms: _459  and  _461
REMARK  194  A    between atoms: _461  and  _462
REMARK  195  A    between atoms: _461  and  _464
REMARK  196  A    between atoms: _464  and  _465
REMARK  197  A    between atoms: _468  and  _470
REMARK  198  A    between atoms: _470  and  _471
REMARK  199  A    between atoms: _470  and  _473
REMARK  200  A    between atoms: _473  and  _474
REMARK  201  A    between atoms: _478  and  _479
REMARK  202  A    between atoms: _484  and  _486
REMARK  203  A    between atoms: _486  and  _487
REMARK  204  A    between atoms: _486  and  _489
REMARK  205  A    between atoms: _492  and  _494
REMARK  206  A    between atoms: _494  and  _495
REMARK  207  A    between atoms: _494  and  _497
REMARK  208  A    between atoms: _497  and  _498
REMARK  209  A    between atoms: _503  and  _505
REMARK  210  A    between atoms: _505  and  _506
REMARK  211  A    between atoms: _505  and  _508
REMARK  212  A    between atoms: _508  and  _509
REMARK  213  A    between atoms: _512  and  _514
REMARK  214  A    between atoms: _514  and  _515
REMARK  215  A    between atoms: _514  and  _517
REMARK  216  A    between atoms: _517  and  _518
REMARK  217  A    between atoms: _521  and  _523
REMARK  218  A    between atoms: _523  and  _524
REMARK  219  A    between atoms: _526  and  _528
REMARK  220  A    between atoms: _528  and  _529
REMARK  221  A    between atoms: _528  and  _531
REMARK  222  A    between atoms: _531  and  _532
REMARK  223  A    between atoms: _532  and  _533
REMARK  224  A    between atoms: _533  and  _534
REMARK  225  A    between atoms: _543  and  _545
REMARK  226  A    between atoms: _545  and  _546
REMARK  227  A    between atoms: _545  and  _548
REMARK  228  A    between atoms: _548  and  _549
REMARK                            x       y       z     vdW  Elec       q    Type
REMARK                         _______ _______ _______ _____ _____    ______ ____
ROOT
ATOM      1  CA  LEU A   1      -3.882  17.228  39.814  0.00  0.00    +0.133 C 
ENDROOT
BRANCH   1   2
ATOM      2  N   LEU A   1      -4.529  18.493  40.118  0.00  0.00    -0.239 NA
ATOM      3  H   LEU A   1      -5.119  18.934  39.384  0.00  0.00    +0.142 HD
ENDBRANCH   1   2
BRANCH   1   4
ATOM      4  C   LEU A   1      -2.540  17.483  39.126  0.00  0.00    +0.224 C 
ATOM      5  O   LEU A   1      -2.442  18.323  38.236  0.00  0.00    -0.287 OA
ENDBRANCH   1   4
BRANCH   1   6
ATOM      6  CB  LEU A   1      -4.788  16.414  38.887  0.00  0.00    +0.025 C 
BRANCH   6   7
ATOM      7  CG  LEU A   1      -5.895  15.516  39.447  0.00  0.00    +0.002 C 
ATOM      8  CD2 LEU A   1      -6.490  15.907  40.826  0.00  0.00    +0.000 C 
ATOM      9  CD1 LEU A   1      -6.994  15.298  38.405  0.00  0.00    +0.000 C 
ENDBRANCH   6   7
ENDBRANCH   1   6
TORSDOF 4
REMARK  Name = ../refined-set-2016/4ll3/4ll3_pocket.pdb
REMARK  228 active torsions:
REMARK  status: ('A' for Active; 'I' for Inactive)
REMARK    1  A    between atoms: _1  and  _3
REMARK    2  A    between atoms: _3  and  _4
REMARK    3  A    between atoms: _3  and  _6
REMARK    4  A    between atoms: _6  and  _7
REMARK    5  A    between atoms: _7  and  _8
REMARK    6  A    between atoms: _8  and  _9
REMARK    7  A    between atoms: _18  and  _20
REMARK    8  A    between atoms: _20  and  _21
REMARK    9  A    between atoms: _20  and  _23
REMARK   10  A    between atoms: _23  and  _24
REMARK   11  A    between atoms: _27  and  _29
REMARK   12  A    between atoms: _29  and  _30
REMARK   13  A    between atoms: _29  and  _32
REMARK   14  A    between atoms: _32  and  _33
REMARK   15  A    between atoms: _36  and  _38
REMARK   16  A    between atoms: _38  and  _39
REMARK   17  A    between atoms: _38  and  _41
REMARK   18  A    between atoms: _41  and  _42
REMARK   19  A    between atoms: _45  and  _47
REMARK   20  A    between atoms: _47  and  _48
REMARK   21  A    between atoms: _47  and  _50
REMARK   22  A    between atoms: _50  and  _51
REMARK   23  A    between atoms: _54  and  _56
REMARK   24  A    between atoms: _56  and  _57
REMARK   25  A    between atoms: _59  and  _61
REMARK   26  A    between atoms: _61  and  _62
REMARK   27  A    between atoms: _65  and  _67
REMARK   28  A    between atoms: _67  and  _68
REMARK   29  A    between atoms: _67  and  _70
REMARK   30  A    between atoms: _70  and  _71
REMARK   31  A    between atoms: _74  and  _76
REMARK   32  A    between atoms: _76  and  _77
REMARK   33  A    between atoms: _76  and  _79
REMARK   34  A    between atoms: _79  and  _80
REMARK   35  A    between atoms: _80  and  _82
REMARK   36  A    between atoms: _83  and  _85
REMARK   37  A    between atoms: _85  and  _86
REMARK   38  A    between atoms: _85  and  _88
REMARK   39  A    between atoms: _88  and  _89
REMARK   40  A    between atoms: _92  and  _94
REMARK   41  A    between atoms: _94  and  _95
REMARK   42  A    between atoms: _94  and  _97
REMARK   43  A    between atoms: _100  and  _102
REMARK   44  A    between atoms: _102  and  _103
REMARK   45  A    between atoms: _102  and  _105
REMARK   46  A    between atoms: _105  and  _106
REMARK   47  A    between atoms: _106  and  _107
REMARK   48  A    between atoms: _107  and  _108
REMARK   49  A    between atoms: _108  and  _109
REMARK   50  A    between atoms: _113  and  _115
REMARK   51  A    between atoms: _115  and  _116
REMARK   52  A    between atoms: _115  and  _118
REMARK   53  A    between atoms: _118  and  _119
REMARK   54  A    between atoms: _119  and  _120
REMARK   55  A    between atoms: _122  and  _124
REMARK   56  A    between atoms: _124  and  _125
REMARK   57  A    between atoms: _124  and  _127
REMARK   58  A    between atoms: _127  and  _128
REMARK   59  A    between atoms: _131  and  _133
REMARK   60  A    between atoms: _133  and  _134
REMARK   61  A    between atoms: _136  and  _138
REMARK   62  A    between atoms: _138  and  _139
REMARK   63  A    between atoms: _141  and  _143
REMARK   64  A    between atoms: _143  and  _144
REMARK   65  A    between atoms: _143  and  _146
REMARK   66  A    between atoms: _146  and  _147
REMARK   67  A    between atoms: _150  and  _152
REMARK   68  A    between atoms: _152  and  _153
REMARK   69  A    between atoms: _155  and  _157
REMARK   70  A    between atoms: _157  and  _158
REMARK   71  A    between atoms: _160  and  _162
REMARK   72  A    between atoms: _162  and  _163
REMARK   73  A    between atoms: _162  and  _165
REMARK   74  A    between atoms: _165  and  _166
REMARK   75  A    between atoms: _172  and  _174
REMARK   76  A    between atoms: _174  and  _175
REMARK   77  A    between atoms: _174  and  _177
REMARK   78  A    between atoms: _177  and  _178
REMARK   79  A    between atoms: _181  and  _183
REMARK   80  A    between atoms: _183  and  _184
REMARK   81  A    between atoms: _183  and  _186
REMARK   82  A    between atoms: _189  and  _191
REMARK   83  A    between atoms: _191  and  _192
REMARK   84  A    between atoms: _191  and  _194
REMARK   85  A    between atoms: _194  and  _195
REMARK   86  A    between atoms: _199  and  _200
REMARK   87  A    between atoms: _205  and  _207
REMARK   88  A    between atoms: _207  and  _208
REMARK   89  A    between atoms: _207  and  _210
REMARK   90  A    between atoms: _210  and  _211
REMARK   91  A    between atoms: _215  and  _216
REMARK   92  A    between atoms: _221  and  _223
REMARK   93  A    between atoms: _223  and  _224
REMARK   94  A    between atoms: _223  and  _226
REMARK   95  A    between atoms: _229  and  _231
REMARK   96  A    between atoms: _231  and  _232
REMARK   97  A    between atoms: _231  and  _234
REMARK   98  A    between atoms: _234  and  _235
REMARK   99  A    between atoms: _240  and  _242
REMARK  100  A    between atoms: _242  and  _243
REMARK  101  A    between atoms: _242  and  _245
REMARK  102  A    between atoms: _245  and  _246
REMARK  103  A    between atoms: _249  and  _251
REMARK  104  A    between atoms: _251  and  _252
REMARK  105  A    between atoms: _251  and  _254
REMARK  106  A    between atoms: _254  and  _255
REMARK  107  A    between atoms: _258  and  _260
REMARK  108  A    between atoms: _260  and  _261
REMARK  109  A    between atoms: _263  and  _265
REMARK  110  A    between atoms: _265  and  _266
REMARK  111  A    between atoms: _265  and  _268
REMARK  112  A    between atoms: _268  and  _269
REMARK  113  A    between atoms: _269  and  _270
REMARK  114  A    between atoms: _270  and  _271
REMARK  115  A    between atoms: _280  and  _282
REMARK  116  A    between atoms: _282  and  _283
REMARK  117  A    between atoms: _282  and  _285
REMARK  118  A    between atoms: _285  and  _286
REMARK  119  A    between atoms: _291  and  _293
REMARK  120  A    between atoms: _293  and  _294
REMARK  121  A    between atoms: _293  and  _296
REMARK  122  A    between atoms: _296  and  _297
REMARK  123  A    between atoms: _297  and  _298
REMARK  124  A    between atoms: _298  and  _299
REMARK  125  A    between atoms: _308  and  _310
REMARK  126  A    between atoms: _310  and  _311
REMARK  127  A    between atoms: _310  and  _313
REMARK  128  A    between atoms: _313  and  _314
REMARK  129  A    between atoms: _317  and  _319
REMARK  130  A    between atoms: _319  and  _320
REMARK  131  A    between atoms: _319  and  _322
REMARK  132  A    between atoms: _322  and  _323
REMARK  133  A    between atoms: _326  and  _328
REMARK  134  A    between atoms: _328  and  _329
REMARK  135  A    between atoms: _328  and  _331
REMARK  136  A    between atoms: _331  and  _332
REMARK  137  A    between atoms: _335  and  _337
REMARK  138  A    between atoms: _337  and  _338
REMARK  139  A    between atoms: _337  and  _340
REMARK  140  A    between atoms: _340  and  _341
REMARK  141  A    between atoms: _344  and  _346
REMARK  142  A    between atoms: _346  and  _347
REMARK  143  A    between atoms: _349  and  _351
REMARK  144  A    between atoms: _351  and  _352
REMARK  145  A    between atoms: _355  and  _357
REMARK  146  A    between atoms: _357  and  _358
REMARK  147  A    between atoms: _357  and  _360
REMARK  148  A    between atoms: _360  and  _361
REMARK  149  A    between atoms: _364  and  _366
REMARK  150  A    between atoms: _366  and  _367
REMARK  151  A    between atoms: _366  and  _369
REMARK  152  A    between atoms: _369  and  _370
REMARK  153  A    between atoms: _370  and  _372
REMARK  154  A    between atoms: _373  and  _375
REMARK  155  A    between atoms: _375  and  _376
REMARK  156  A    between atoms: _375  and  _378
REMARK  157  A    between atoms: _378  and  _379
REMARK  158  A    between atoms: _382  and  _384
REMARK  159  A    between atoms: _384  and  _385
REMARK  160  A    between atoms: _384  and  _387
REMARK  161  A    between atoms: _390  and  _392
REMARK  162  A    between atoms: _392  and  _393
REMARK  163  A    between atoms: _392  and  _395
REMARK  164  A    between atoms: _395  and  _396
REMARK  165  A    between atoms: _396  and  _397
REMARK  166  A    between atoms: _397  and  _398
REMARK  167  A    between atoms: _398  and  _399
REMARK  168  A    between atoms: _403  and  _405
REMARK  169  A    between atoms: _405  and  _406
REMARK  170  A    between atoms: _405  and  _408
REMARK  171  A    between atoms: _408  and  _409
REMARK  172  A    between atoms: _409  and  _410
REMARK  173  A    between atoms: _412  and  _414
REMARK  174  A    between atoms: _414  and  _415
REMARK  175  A    between atoms: _414  and  _417
REMARK  176  A    between atoms: _417  and  _418
REMARK  177  A    between atoms: _421  and  _423
REMARK  178  A    between atoms: _423  and  _424
REMARK  179  A    between atoms: _426  and  _428
REMARK  180  A    between atoms: _428  and  _429
REMARK  181  A    between atoms: _431  and  _433
REMARK  182  A    between atoms: _433  and  _434
REMARK  183  A    between atoms: _433  and  _436
REMARK  184  A    between atoms: _436  and  _437
REMARK  185  A    between atoms: _440  and  _442
REMARK  186  A    between atoms: _442  and  _443
REMARK  187  A    between atoms: _445  and  _447
REMARK  188  A    between atoms: _447  and  _448
REMARK  189  A    between atoms: _450  and  _452
REMARK  190  A    between atoms: _452  and  _453
REMARK  191  A    between atoms: _452  and  _455
REMARK  192  A    between atoms: _455  and  _456
REMARK  193  A    between atoms: _459  and  _461
REMARK  194  A    between atoms: _461  and  _462
REMARK  195  A    between atoms: _461  and  _464
REMARK  196  A    between atoms: _464  and  _465
REMARK  197  A    between atoms: _468  and  _470
REMARK  198  A    between atoms: _470  and  _471
REMARK  199  A    between atoms: _470  and  _473
REMARK  200  A    between atoms: _473  and  _474
REMARK  201  A    between atoms: _478  and  _479
REMARK  202  A    between atoms: _484  and  _486
REMARK  203  A    between atoms: _486  and  _487
REMARK  204  A    between atoms: _486  and  _489
REMARK  205  A    between atoms: _492  and  _494
REMARK  206  A    between atoms: _494  and  _495
REMARK  207  A    between atoms: _494  and  _497
REMARK  208  A    between atoms: _497  and  _498
REMARK  209  A    between atoms: _503  and  _505
REMARK  210  A    between atoms: _505  and  _506
REMARK  211  A    between atoms: _505  and  _508
REMARK  212  A    between atoms: _508  and  _509
REMARK  213  A    between atoms: _512  and  _514
REMARK  214  A    between atoms: _514  and  _515
REMARK  215  A    between atoms: _514  and  _517
REMARK  216  A    between atoms: _517  and  _518
REMARK  217  A    between atoms: _521  and  _523
REMARK  218  A    between atoms: _523  and  _524
REMARK  219  A    between atoms: _526  and  _528
REMARK  220  A    between atoms: _528  and  _529
REMARK  221  A    between atoms: _528  and  _531
REMARK  222  A    between atoms: _531  and  _532
REMARK  223  A    between atoms: _532  and  _533
REMARK  224  A    between atoms: _533  and  _534
REMARK  225  A    between atoms: _543  and  _545
REMARK  226  A    between atoms: _545  and  _546
REMARK  227  A    between atoms: _545  and  _548
REMARK  228  A    between atoms: _548  and  _549
REMARK                            x       y       z     vdW  Elec       q    Type
REMARK                         _______ _______ _______ _____ _____    ______ ____
ROOT
ATOM      1  C   ILE A   5      -6.042  22.486  32.731  0.00  0.00    +0.241 C 
ATOM      2  O   ILE A   5      -5.987  21.875  33.800  0.00  0.00    -0.273 OA
ATOM      3  N   ILE A   6      -6.724  23.616  32.571  0.00  0.00    -0.297 N 
ATOM      4  H   ILE A   6      -6.602  24.142  31.682  0.00  0.00    +0.150 HD
ENDROOT
BRANCH   1   5
ATOM      5  CA  ILE A   5      -5.253  22.005  31.501  0.00  0.00    +0.149 C 
BRANCH   5   7
ATOM      6  C   ASN A   4      -2.899  22.357  31.084  0.00  0.00    +0.241 C 
ATOM      7  N   ILE A   5      -3.845  21.754  31.795  0.00  0.00    -0.297 N 
ATOM      8  H   ILE A   5      -3.583  21.102  32.562  0.00  0.00    +0.150 HD
ATOM      9  O   ASN A   4      -3.164  23.136  30.148  0.00  0.00    -0.273 OA
BRANCH   6  10
ATOM     10  CA  ASN A   4      -1.452  22.031  31.432  0.00  0.00    +0.158 C 
BRANCH  10  12
ATOM     11  C   VAL A   3      -1.156  20.321  29.708  0.00  0.00    +0.241 C 
ATOM     12  N   ASN A   4      -0.777  21.469  30.273  0.00  0.00    -0.297 N 
ATOM     13  H   ASN A   4       0.033  21.982  29.869  0.00  0.00    +0.150 HD
ATOM     14  O   VAL A   3      -1.920  19.521  30.247  0.00  0.00    -0.273 OA
BRANCH  11  15
ATOM     15  CA  VAL A   3      -0.550  19.955  28.363  0.00  0.00    +0.149 C 
BRANCH  15  17
ATOM     16  C   PRO A   2       0.833  18.010  27.761  0.00  0.00    +0.241 C 
ATOM     17  N   VAL A   3      -0.167  18.548  28.462  0.00  0.00    -0.297 N 
ATOM     18  H   VAL A   3      -0.701  17.935  29.111  0.00  0.00    +0.150 HD
ATOM     19  O   PRO A   2       1.639  18.677  27.144  0.00  0.00    -0.273 OA
BRANCH  16  26
ATOM     20  C   THR A   1       0.432  15.914  30.024  0.00  0.00    +0.244 C 
ATOM     21  O   THR A   1       1.459  16.511  30.390  0.00  0.00    -0.273 OA
ATOM     22  N   PRO A   2       0.085  15.806  28.729  0.00  0.00    -0.272 N 
ATOM     23  CD  PRO A   2      -0.989  15.049  28.055  0.00  0.00    +0.094 C 
ATOM     24  CG  PRO A   2      -0.862  15.495  26.630  0.00  0.00    +0.024 C 
ATOM     25  CB  PRO A   2       0.485  15.905  26.413  0.00  0.00    +0.031 C 
ATOM     26  CA  PRO A   2       0.958  16.480  27.759  0.00  0.00    +0.152 C 
BRANCH  20  27
ATOM     27  CA  THR A   1      -0.472  15.226  31.072  0.00  0.00    +0.172 C 
BRANCH  27  28
ATOM     28  N   THR A   1       0.406  14.712  32.110  0.00  0.00    -0.236 NA
ATOM     29  H   THR A   1       0.469  15.216  33.017  0.00  0.00    +0.142 HD
ENDBRANCH  27  28
BRANCH  27  30
ATOM     30  CB  THR A   1      -1.504  16.230  31.648  0.00  0.00    +0.135 C 
ATOM     31  CG2 THR A   1      -0.834  17.303  32.532  0.00  0.00    +0.034 C 
BRANCH  30  32
ATOM     32  OG1 THR A   1      -2.196  16.864  30.577  0.00  0.00    -0.383 OA
ATOM     33  HG1 THR A   1      -1.547  17.347  30.006  0.00  0.00    +0.210 HD
ENDBRANCH  30  32
ENDBRANCH  27  30
ENDBRANCH  20  27
ENDBRANCH  16  26
ENDBRANCH  15  17
BRANCH  15  34
ATOM     34  CB  VAL A   3      -1.623  20.104  27.217  0.00  0.00    +0.027 C 
ATOM     35  CG2 VAL A   3      -2.354  21.421  27.274  0.00  0.00    +0.002 C 
ATOM     36  CG1 VAL A   3      -0.954  19.920  25.836  0.00  0.00    +0.002 C 
ENDBRANCH  15  34
ENDBRANCH  11  15
ENDBRANCH  10  12
BRANCH  10  37
ATOM     37  CB  ASN A   4      -0.801  23.326  31.900  0.00  0.00    +0.114 C 
BRANCH  37  38
ATOM     38  CG  ASN A   4       0.641  23.149  32.393  0.00  0.00    +0.222 C 
ATOM     39  OD1 ASN A   4       0.974  22.176  33.079  0.00  0.00    -0.275 OA
ATOM     40  ND2 ASN A   4       1.491  24.141  32.075  0.00  0.00    -0.329 N 
ATOM     41 HD21 ASN A   4       2.475  24.110  32.409  0.00  0.00    +0.145 HD
ATOM     42 HD22 ASN A   4       1.164  24.940  31.495  0.00  0.00    +0.145 HD
ENDBRANCH  37  38
ENDBRANCH  10  37
ENDBRANCH   6  10
ENDBRANCH   5   7
BRANCH   5  43
ATOM     43  CB  ILE A   5      -5.953  20.782  30.803  0.00  0.00    +0.027 C 
ATOM     44  CG2 ILE A   5      -5.322  20.472  29.439  0.00  0.00    +0.002 C 
BRANCH  43  45
ATOM     45  CG1 ILE A   5      -5.938  19.533  31.691  0.00  0.00    +0.002 C 
ATOM     46  CD1 ILE A   5      -6.747  18.360  31.111  0.00  0.00    +0.000 C 
ENDBRANCH  43  45
ENDBRANCH   5  43
ENDBRANCH   1   5
BRANCH   3  47
ATOM     47  CA  ILE A   6      -7.642  24.164  33.582  0.00  0.00    +0.149 C 
BRANCH  47  48
ATOM     48  C   ILE A   6      -9.025  23.593  33.328  0.00  0.00    +0.241 C 
ATOM     49  N   GLY A   7      -9.510  22.807  34.273  0.00  0.00    -0.295 N 
ATOM     50  H   GLY A   7      -8.976  22.674  35.155  0.00  0.00    +0.150 HD
ATOM     51  O   ILE A   6      -9.669  23.903  32.325  0.00  0.00    -0.273 OA
BRANCH  49  52
ATOM     52  CA  GLY A   7     -10.773  22.130  34.095  0.00  0.00    +0.176 C 
BRANCH  52  53
ATOM     53  C   GLY A   7     -11.907  22.811  34.821  0.00  0.00    +0.243 C 
ATOM     54  O   GLY A   7     -11.705  23.812  35.515  0.00  0.00    -0.273 OA
ATOM     55  N   ARG A   8     -13.101  22.231  34.707  0.00  0.00    -0.297 N 
ATOM     56  H   ARG A   8     -13.170  21.293  34.262  0.00  0.00    +0.150 HD
BRANCH  55  57
ATOM     57  CA  ARG A   8     -14.322  22.885  35.195  0.00  0.00    +0.149 C 
BRANCH  57  58
ATOM     58  C   ARG A   8     -14.275  23.211  36.690  0.00  0.00    +0.241 C 
ATOM     59  N   ASN A   9     -13.599  22.385  37.489  0.00  0.00    -0.298 N 
ATOM     60  H   ASN A   9     -13.150  21.538  37.087  0.00  0.00    +0.150 HD
ATOM     61  O   ARG A   8     -14.837  24.222  37.109  0.00  0.00    -0.273 OA
BRANCH  59  62
ATOM     62  CA  ASN A   9     -13.480  22.649  38.911  0.00  0.00    +0.146 C 
BRANCH  62  63
ATOM     63  C   ASN A   9     -12.947  24.054  39.220  0.00  0.00    +0.227 C 
ATOM     64  O   ASN A   9     -13.337  24.674  40.229  0.00  0.00    -0.286 OA
ENDBRANCH  62  63
BRANCH  62  65
ATOM     65  CB  ASN A   9     -12.658  21.566  39.619  0.00  0.00    +0.112 C 
BRANCH  65  66
ATOM     66  CG  ASN A   9     -11.165  21.722  39.417  0.00  0.00    +0.222 C 
ATOM     67  ND2 ASN A   9     -10.403  21.858  40.532  0.00  0.00    -0.329 N 
ATOM     68 HD21 ASN A   9     -10.851  21.866  41.470  0.00  0.00    +0.145 HD
ATOM     69 HD22 ASN A   9      -9.371  21.954  40.448  0.00  0.00    +0.145 HD
ATOM     70  OD1 ASN A   9     -10.696  21.706  38.291  0.00  0.00    -0.275 OA
ENDBRANCH  65  66
ENDBRANCH  62  65
ENDBRANCH  59  62
ENDBRANCH  57  58
BRANCH  57  71
ATOM     71  CB  ARG A   8     -15.577  22.076  34.836  0.00  0.00    +0.033 C 
BRANCH  71  72
ATOM     72  CG  ARG A   8     -15.860  21.979  33.292  0.00  0.00    +0.045 C 
BRANCH  72  73
ATOM     73  CD  ARG A   8     -17.195  21.225  33.017  0.00  0.00    +0.174 C 
BRANCH  73  74
ATOM     74  NE  ARG A   8     -17.193  19.857  33.559  0.00  0.00    -0.265 N 
ATOM     75  CZ  ARG A   8     -17.742  19.463  34.715  0.00  0.00    +0.342 C 
ATOM     76  NH2 ARG A   8     -18.385  20.308  35.520  0.00  0.00    -0.292 N 
ATOM     77 HH21 ARG A   8     -18.799  19.965  36.410  0.00  0.00    +0.255 HD
ATOM     78 HH22 ARG A   8     -18.473  21.311  35.258  0.00  0.00    +0.255 HD
ATOM     79  NH1 ARG A   8     -17.639  18.193  35.074  0.00  0.00    -0.292 N 
ATOM     80 HH11 ARG A   8     -18.059  17.870  35.969  0.00  0.00    +0.255 HD
ATOM     81 HH12 ARG A   8     -17.138  17.518  34.461  0.00  0.00    +0.255 HD
ATOM     82  HE  ARG A   8     -16.720  19.126  32.990  0.00  0.00    +0.259 HD
ENDBRANCH  73  74
ENDBRANCH  72  73
ENDBRANCH  71  72
ENDBRANCH  57  71
ENDBRANCH  55  57
ENDBRANCH  52  53
ENDBRANCH  49  52
ENDBRANCH  47  48
BRANCH  47  83
ATOM     83  CB  ILE A   6      -7.707  25.724  33.549  0.00  0.00    +0.027 C 
ATOM     84  CG2 ILE A   6      -8.700  26.291  34.658  0.00  0.00    +0.002 C 
BRANCH  83  85
ATOM     85  CG1 ILE A   6      -6.286  26.335  33.631  0.00  0.00    +0.002 C 
ATOM     86  CD1 ILE A   6      -5.489  25.913  34.831  0.00  0.00    +0.000 C 
ENDBRANCH  83  85
ENDBRANCH  47  83
ENDBRANCH   3  47
TORSDOF 32
REMARK  Name = ../refined-set-2016/4ll3/4ll3_pocket.pdb
REMARK  228 active torsions:
REMARK  status: ('A' for Active; 'I' for Inactive)
REMARK    1  A    between atoms: _1  and  _3
REMARK    2  A    between atoms: _3  and  _4
REMARK    3  A    between atoms: _3  and  _6
REMARK    4  A    between atoms: _6  and  _7
REMARK    5  A    between atoms: _7  and  _8
REMARK    6  A    between atoms: _8  and  _9
REMARK    7  A    between atoms: _18  and  _20
REMARK    8  A    between atoms: _20  and  _21
REMARK    9  A    between atoms: _20  and  _23
REMARK   10  A    between atoms: _23  and  _24
REMARK   11  A    between atoms: _27  and  _29
REMARK   12  A    between atoms: _29  and  _30
REMARK   13  A    between atoms: _29  and  _32
REMARK   14  A    between atoms: _32  and  _33
REMARK   15  A    between atoms: _36  and  _38
REMARK   16  A    between atoms: _38  and  _39
REMARK   17  A    between atoms: _38  and  _41
REMARK   18  A    between atoms: _41  and  _42
REMARK   19  A    between atoms: _45  and  _47
REMARK   20  A    between atoms: _47  and  _48
REMARK   21  A    between atoms: _47  and  _50
REMARK   22  A    between atoms: _50  and  _51
REMARK   23  A    between atoms: _54  and  _56
REMARK   24  A    between atoms: _56  and  _57
REMARK   25  A    between atoms: _59  and  _61
REMARK   26  A    between atoms: _61  and  _62
REMARK   27  A    between atoms: _65  and  _67
REMARK   28  A    between atoms: _67  and  _68
REMARK   29  A    between atoms: _67  and  _70
REMARK   30  A    between atoms: _70  and  _71
REMARK   31  A    between atoms: _74  and  _76
REMARK   32  A    between atoms: _76  and  _77
REMARK   33  A    between atoms: _76  and  _79
REMARK   34  A    between atoms: _79  and  _80
REMARK   35  A    between atoms: _80  and  _82
REMARK   36  A    between atoms: _83  and  _85
REMARK   37  A    between atoms: _85  and  _86
REMARK   38  A    between atoms: _85  and  _88
REMARK   39  A    between atoms: _88  and  _89
REMARK   40  A    between atoms: _92  and  _94
REMARK   41  A    between atoms: _94  and  _95
REMARK   42  A    between atoms: _94  and  _97
REMARK   43  A    between atoms: _100  and  _102
REMARK   44  A    between atoms: _102  and  _103
REMARK   45  A    between atoms: _102  and  _105
REMARK   46  A    between atoms: _105  and  _106
REMARK   47  A    between atoms: _106  and  _107
REMARK   48  A    between atoms: _107  and  _108
REMARK   49  A    between atoms: _108  and  _109
REMARK   50  A    between atoms: _113  and  _115
REMARK   51  A    between atoms: _115  and  _116
REMARK   52  A    between atoms: _115  and  _118
REMARK   53  A    between atoms: _118  and  _119
REMARK   54  A    between atoms: _119  and  _120
REMARK   55  A    between atoms: _122  and  _124
REMARK   56  A    between atoms: _124  and  _125
REMARK   57  A    between atoms: _124  and  _127
REMARK   58  A    between atoms: _127  and  _128
REMARK   59  A    between atoms: _131  and  _133
REMARK   60  A    between atoms: _133  and  _134
REMARK   61  A    between atoms: _136  and  _138
REMARK   62  A    between atoms: _138  and  _139
REMARK   63  A    between atoms: _141  and  _143
REMARK   64  A    between atoms: _143  and  _144
REMARK   65  A    between atoms: _143  and  _146
REMARK   66  A    between atoms: _146  and  _147
REMARK   67  A    between atoms: _150  and  _152
REMARK   68  A    between atoms: _152  and  _153
REMARK   69  A    between atoms: _155  and  _157
REMARK   70  A    between atoms: _157  and  _158
REMARK   71  A    between atoms: _160  and  _162
REMARK   72  A    between atoms: _162  and  _163
REMARK   73  A    between atoms: _162  and  _165
REMARK   74  A    between atoms: _165  and  _166
REMARK   75  A    between atoms: _172  and  _174
REMARK   76  A    between atoms: _174  and  _175
REMARK   77  A    between atoms: _174  and  _177
REMARK   78  A    between atoms: _177  and  _178
REMARK   79  A    between atoms: _181  and  _183
REMARK   80  A    between atoms: _183  and  _184
REMARK   81  A    between atoms: _183  and  _186
REMARK   82  A    between atoms: _189  and  _191
REMARK   83  A    between atoms: _191  and  _192
REMARK   84  A    between atoms: _191  and  _194
REMARK   85  A    between atoms: _194  and  _195
REMARK   86  A    between atoms: _199  and  _200
REMARK   87  A    between atoms: _205  and  _207
REMARK   88  A    between atoms: _207  and  _208
REMARK   89  A    between atoms: _207  and  _210
REMARK   90  A    between atoms: _210  and  _211
REMARK   91  A    between atoms: _215  and  _216
REMARK   92  A    between atoms: _221  and  _223
REMARK   93  A    between atoms: _223  and  _224
REMARK   94  A    between atoms: _223  and  _226
REMARK   95  A    between atoms: _229  and  _231
REMARK   96  A    between atoms: _231  and  _232
REMARK   97  A    between atoms: _231  and  _234
REMARK   98  A    between atoms: _234  and  _235
REMARK   99  A    between atoms: _240  and  _242
REMARK  100  A    between atoms: _242  and  _243
REMARK  101  A    between atoms: _242  and  _245
REMARK  102  A    between atoms: _245  and  _246
REMARK  103  A    between atoms: _249  and  _251
REMARK  104  A    between atoms: _251  and  _252
REMARK  105  A    between atoms: _251  and  _254
REMARK  106  A    between atoms: _254  and  _255
REMARK  107  A    between atoms: _258  and  _260
REMARK  108  A    between atoms: _260  and  _261
REMARK  109  A    between atoms: _263  and  _265
REMARK  110  A    between atoms: _265  and  _266
REMARK  111  A    between atoms: _265  and  _268
REMARK  112  A    between atoms: _268  and  _269
REMARK  113  A    between atoms: _269  and  _270
REMARK  114  A    between atoms: _270  and  _271
REMARK  115  A    between atoms: _280  and  _282
REMARK  116  A    between atoms: _282  and  _283
REMARK  117  A    between atoms: _282  and  _285
REMARK  118  A    between atoms: _285  and  _286
REMARK  119  A    between atoms: _291  and  _293
REMARK  120  A    between atoms: _293  and  _294
REMARK  121  A    between atoms: _293  and  _296
REMARK  122  A    between atoms: _296  and  _297
REMARK  123  A    between atoms: _297  and  _298
REMARK  124  A    between atoms: _298  and  _299
REMARK  125  A    between atoms: _308  and  _310
REMARK  126  A    between atoms: _310  and  _311
REMARK  127  A    between atoms: _310  and  _313
REMARK  128  A    between atoms: _313  and  _314
REMARK  129  A    between atoms: _317  and  _319
REMARK  130  A    between atoms: _319  and  _320
REMARK  131  A    between atoms: _319  and  _322
REMARK  132  A    between atoms: _322  and  _323
REMARK  133  A    between atoms: _326  and  _328
REMARK  134  A    between atoms: _328  and  _329
REMARK  135  A    between atoms: _328  and  _331
REMARK  136  A    between atoms: _331  and  _332
REMARK  137  A    between atoms: _335  and  _337
REMARK  138  A    between atoms: _337  and  _338
REMARK  139  A    between atoms: _337  and  _340
REMARK  140  A    between atoms: _340  and  _341
REMARK  141  A    between atoms: _344  and  _346
REMARK  142  A    between atoms: _346  and  _347
REMARK  143  A    between atoms: _349  and  _351
REMARK  144  A    between atoms: _351  and  _352
REMARK  145  A    between atoms: _355  and  _357
REMARK  146  A    between atoms: _357  and  _358
REMARK  147  A    between atoms: _357  and  _360
REMARK  148  A    between atoms: _360  and  _361
REMARK  149  A    between atoms: _364  and  _366
REMARK  150  A    between atoms: _366  and  _367
REMARK  151  A    between atoms: _366  and  _369
REMARK  152  A    between atoms: _369  and  _370
REMARK  153  A    between atoms: _370  and  _372
REMARK  154  A    between atoms: _373  and  _375
REMARK  155  A    between atoms: _375  and  _376
REMARK  156  A    between atoms: _375  and  _378
REMARK  157  A    between atoms: _378  and  _379
REMARK  158  A    between atoms: _382  and  _384
REMARK  159  A    between atoms: _384  and  _385
REMARK  160  A    between atoms: _384  and  _387
REMARK  161  A    between atoms: _390  and  _392
REMARK  162  A    between atoms: _392  and  _393
REMARK  163  A    between atoms: _392  and  _395
REMARK  164  A    between atoms: _395  and  _396
REMARK  165  A    between atoms: _396  and  _397
REMARK  166  A    between atoms: _397  and  _398
REMARK  167  A    between atoms: _398  and  _399
REMARK  168  A    between atoms: _403  and  _405
REMARK  169  A    between atoms: _405  and  _406
REMARK  170  A    between atoms: _405  and  _408
REMARK  171  A    between atoms: _408  and  _409
REMARK  172  A    between atoms: _409  and  _410
REMARK  173  A    between atoms: _412  and  _414
REMARK  174  A    between atoms: _414  and  _415
REMARK  175  A    between atoms: _414  and  _417
REMARK  176  A    between atoms: _417  and  _418
REMARK  177  A    between atoms: _421  and  _423
REMARK  178  A    between atoms: _423  and  _424
REMARK  179  A    between atoms: _426  and  _428
REMARK  180  A    between atoms: _428  and  _429
REMARK  181  A    between atoms: _431  and  _433
REMARK  182  A    between atoms: _433  and  _434
REMARK  183  A    between atoms: _433  and  _436
REMARK  184  A    between atoms: _436  and  _437
REMARK  185  A    between atoms: _440  and  _442
REMARK  186  A    between atoms: _442  and  _443
REMARK  187  A    between atoms: _445  and  _447
REMARK  188  A    between atoms: _447  and  _448
REMARK  189  A    between atoms: _450  and  _452
REMARK  190  A    between atoms: _452  and  _453
REMARK  191  A    between atoms: _452  and  _455
REMARK  192  A    between atoms: _455  and  _456
REMARK  193  A    between atoms: _459  and  _461
REMARK  194  A    between atoms: _461  and  _462
REMARK  195  A    between atoms: _461  and  _464
REMARK  196  A    between atoms: _464  and  _465
REMARK  197  A    between atoms: _468  and  _470
REMARK  198  A    between atoms: _470  and  _471
REMARK  199  A    between atoms: _470  and  _473
REMARK  200  A    between atoms: _473  and  _474
REMARK  201  A    between atoms: _478  and  _479
REMARK  202  A    between atoms: _484  and  _486
REMARK  203  A    between atoms: _486  and  _487
REMARK  204  A    between atoms: _486  and  _489
REMARK  205  A    between atoms: _492  and  _494
REMARK  206  A    between atoms: _494  and  _495
REMARK  207  A    between atoms: _494  and  _497
REMARK  208  A    between atoms: _497  and  _498
REMARK  209  A    between atoms: _503  and  _505
REMARK  210  A    between atoms: _505  and  _506
REMARK  211  A    between atoms: _505  and  _508
REMARK  212  A    between atoms: _508  and  _509
REMARK  213  A    between atoms: _512  and  _514
REMARK  214  A    between atoms: _514  and  _515
REMARK  215  A    between atoms: _514  and  _517
REMARK  216  A    between atoms: _517  and  _518
REMARK  217  A    between atoms: _521  and  _523
REMARK  218  A    between atoms: _523  and  _524
REMARK  219  A    between atoms: _526  and  _528
REMARK  220  A    between atoms: _528  and  _529
REMARK  221  A    between atoms: _528  and  _531
REMARK  222  A    between atoms: _531  and  _532
REMARK  223  A    between atoms: _532  and  _533
REMARK  224  A    between atoms: _533  and  _534
REMARK  225  A    between atoms: _543  and  _545
REMARK  226  A    between atoms: _545  and  _546
REMARK  227  A    between atoms: _545  and  _548
REMARK  228  A    between atoms: _548  and  _549
REMARK                            x       y       z     vdW  Elec       q    Type
REMARK                         _______ _______ _______ _____ _____    ______ ____
ROOT
ATOM      1  O   HOH     1      -7.706  13.262  26.734  0.00  0.00    +0.000 OA
ENDROOT
TORSDOF 0
REMARK  Name = ../refined-set-2016/4ll3/4ll3_pocket.pdb
REMARK  228 active torsions:
REMARK  status: ('A' for Active; 'I' for Inactive)
REMARK    1  A    between atoms: _1  and  _3
REMARK    2  A    between atoms: _3  and  _4
REMARK    3  A    between atoms: _3  and  _6
REMARK    4  A    between atoms: _6  and  _7
REMARK    5  A    between atoms: _7  and  _8
REMARK    6  A    between atoms: _8  and  _9
REMARK    7  A    between atoms: _18  and  _20
REMARK    8  A    between atoms: _20  and  _21
REMARK    9  A    between atoms: _20  and  _23
REMARK   10  A    between atoms: _23  and  _24
REMARK   11  A    between atoms: _27  and  _29
REMARK   12  A    between atoms: _29  and  _30
REMARK   13  A    between atoms: _29  and  _32
REMARK   14  A    between atoms: _32  and  _33
REMARK   15  A    between atoms: _36  and  _38
REMARK   16  A    between atoms: _38  and  _39
REMARK   17  A    between atoms: _38  and  _41
REMARK   18  A    between atoms: _41  and  _42
REMARK   19  A    between atoms: _45  and  _47
REMARK   20  A    between atoms: _47  and  _48
REMARK   21  A    between atoms: _47  and  _50
REMARK   22  A    between atoms: _50  and  _51
REMARK   23  A    between atoms: _54  and  _56
REMARK   24  A    between atoms: _56  and  _57
REMARK   25  A    between atoms: _59  and  _61
REMARK   26  A    between atoms: _61  and  _62
REMARK   27  A    between atoms: _65  and  _67
REMARK   28  A    between atoms: _67  and  _68
REMARK   29  A    between atoms: _67  and  _70
REMARK   30  A    between atoms: _70  and  _71
REMARK   31  A    between atoms: _74  and  _76
REMARK   32  A    between atoms: _76  and  _77
REMARK   33  A    between atoms: _76  and  _79
REMARK   34  A    between atoms: _79  and  _80
REMARK   35  A    between atoms: _80  and  _82
REMARK   36  A    between atoms: _83  and  _85
REMARK   37  A    between atoms: _85  and  _86
REMARK   38  A    between atoms: _85  and  _88
REMARK   39  A    between atoms: _88  and  _89
REMARK   40  A    between atoms: _92  and  _94
REMARK   41  A    between atoms: _94  and  _95
REMARK   42  A    between atoms: _94  and  _97
REMARK   43  A    between atoms: _100  and  _102
REMARK   44  A    between atoms: _102  and  _103
REMARK   45  A    between atoms: _102  and  _105
REMARK   46  A    between atoms: _105  and  _106
REMARK   47  A    between atoms: _106  and  _107
REMARK   48  A    between atoms: _107  and  _108
REMARK   49  A    between atoms: _108  and  _109
REMARK   50  A    between atoms: _113  and  _115
REMARK   51  A    between atoms: _115  and  _116
REMARK   52  A    between atoms: _115  and  _118
REMARK   53  A    between atoms: _118  and  _119
REMARK   54  A    between atoms: _119  and  _120
REMARK   55  A    between atoms: _122  and  _124
REMARK   56  A    between atoms: _124  and  _125
REMARK   57  A    between atoms: _124  and  _127
REMARK   58  A    between atoms: _127  and  _128
REMARK   59  A    between atoms: _131  and  _133
REMARK   60  A    between atoms: _133  and  _134
REMARK   61  A    between atoms: _136  and  _138
REMARK   62  A    between atoms: _138  and  _139
REMARK   63  A    between atoms: _141  and  _143
REMARK   64  A    between atoms: _143  and  _144
REMARK   65  A    between atoms: _143  and  _146
REMARK   66  A    between atoms: _146  and  _147
REMARK   67  A    between atoms: _150  and  _152
REMARK   68  A    between atoms: _152  and  _153
REMARK   69  A    between atoms: _155  and  _157
REMARK   70  A    between atoms: _157  and  _158
REMARK   71  A    between atoms: _160  and  _162
REMARK   72  A    between atoms: _162  and  _163
REMARK   73  A    between atoms: _162  and  _165
REMARK   74  A    between atoms: _165  and  _166
REMARK   75  A    between atoms: _172  and  _174
REMARK   76  A    between atoms: _174  and  _175
REMARK   77  A    between atoms: _174  and  _177
REMARK   78  A    between atoms: _177  and  _178
REMARK   79  A    between atoms: _181  and  _183
REMARK   80  A    between atoms: _183  and  _184
REMARK   81  A    between atoms: _183  and  _186
REMARK   82  A    between atoms: _189  and  _191
REMARK   83  A    between atoms: _191  and  _192
REMARK   84  A    between atoms: _191  and  _194
REMARK   85  A    between atoms: _194  and  _195
REMARK   86  A    between atoms: _199  and  _200
REMARK   87  A    between atoms: _205  and  _207
REMARK   88  A    between atoms: _207  and  _208
REMARK   89  A    between atoms: _207  and  _210
REMARK   90  A    between atoms: _210  and  _211
REMARK   91  A    between atoms: _215  and  _216
REMARK   92  A    between atoms: _221  and  _223
REMARK   93  A    between atoms: _223  and  _224
REMARK   94  A    between atoms: _223  and  _226
REMARK   95  A    between atoms: _229  and  _231
REMARK   96  A    between atoms: _231  and  _232
REMARK   97  A    between atoms: _231  and  _234
REMARK   98  A    between atoms: _234  and  _235
REMARK   99  A    between atoms: _240  and  _242
REMARK  100  A    between atoms: _242  and  _243
REMARK  101  A    between atoms: _242  and  _245
REMARK  102  A    between atoms: _245  and  _246
REMARK  103  A    between atoms: _249  and  _251
REMARK  104  A    between atoms: _251  and  _252
REMARK  105  A    between atoms: _251  and  _254
REMARK  106  A    between atoms: _254  and  _255
REMARK  107  A    between atoms: _258  and  _260
REMARK  108  A    between atoms: _260  and  _261
REMARK  109  A    between atoms: _263  and  _265
REMARK  110  A    between atoms: _265  and  _266
REMARK  111  A    between atoms: _265  and  _268
REMARK  112  A    between atoms: _268  and  _269
REMARK  113  A    between atoms: _269  and  _270
REMARK  114  A    between atoms: _270  and  _271
REMARK  115  A    between atoms: _280  and  _282
REMARK  116  A    between atoms: _282  and  _283
REMARK  117  A    between atoms: _282  and  _285
REMARK  118  A    between atoms: _285  and  _286
REMARK  119  A    between atoms: _291  and  _293
REMARK  120  A    between atoms: _293  and  _294
REMARK  121  A    between atoms: _293  and  _296
REMARK  122  A    between atoms: _296  and  _297
REMARK  123  A    between atoms: _297  and  _298
REMARK  124  A    between atoms: _298  and  _299
REMARK  125  A    between atoms: _308  and  _310
REMARK  126  A    between atoms: _310  and  _311
REMARK  127  A    between atoms: _310  and  _313
REMARK  128  A    between atoms: _313  and  _314
REMARK  129  A    between atoms: _317  and  _319
REMARK  130  A    between atoms: _319  and  _320
REMARK  131  A    between atoms: _319  and  _322
REMARK  132  A    between atoms: _322  and  _323
REMARK  133  A    between atoms: _326  and  _328
REMARK  134  A    between atoms: _328  and  _329
REMARK  135  A    between atoms: _328  and  _331
REMARK  136  A    between atoms: _331  and  _332
REMARK  137  A    between atoms: _335  and  _337
REMARK  138  A    between atoms: _337  and  _338
REMARK  139  A    between atoms: _337  and  _340
REMARK  140  A    between atoms: _340  and  _341
REMARK  141  A    between atoms: _344  and  _346
REMARK  142  A    between atoms: _346  and  _347
REMARK  143  A    between atoms: _349  and  _351
REMARK  144  A    between atoms: _351  and  _352
REMARK  145  A    between atoms: _355  and  _357
REMARK  146  A    between atoms: _357  and  _358
REMARK  147  A    between atoms: _357  and  _360
REMARK  148  A    between atoms: _360  and  _361
REMARK  149  A    between atoms: _364  and  _366
REMARK  150  A    between atoms: _366  and  _367
REMARK  151  A    between atoms: _366  and  _369
REMARK  152  A    between atoms: _369  and  _370
REMARK  153  A    between atoms: _370  and  _372
REMARK  154  A    between atoms: _373  and  _375
REMARK  155  A    between atoms: _375  and  _376
REMARK  156  A    between atoms: _375  and  _378
REMARK  157  A    between atoms: _378  and  _379
REMARK  158  A    between atoms: _382  and  _384
REMARK  159  A    between atoms: _384  and  _385
REMARK  160  A    between atoms: _384  and  _387
REMARK  161  A    between atoms: _390  and  _392
REMARK  162  A    between atoms: _392  and  _393
REMARK  163  A    between atoms: _392  and  _395
REMARK  164  A    between atoms: _395  and  _396
REMARK  165  A    between atoms: _396  and  _397
REMARK  166  A    between atoms: _397  and  _398
REMARK  167  A    between atoms: _398  and  _399
REMARK  168  A    between atoms: _403  and  _405
REMARK  169  A    between atoms: _405  and  _406
REMARK  170  A    between atoms: _405  and  _408
REMARK  171  A    between atoms: _408  and  _409
REMARK  172  A    between atoms: _409  and  _410
REMARK  173  A    between atoms: _412  and  _414
REMARK  174  A    between atoms: _414  and  _415
REMARK  175  A    between atoms: _414  and  _417
REMARK  176  A    between atoms: _417  and  _418
REMARK  177  A    between atoms: _421  and  _423
REMARK  178  A    between atoms: _423  and  _424
REMARK  179  A    between atoms: _426  and  _428
REMARK  180  A    between atoms: _428  and  _429
REMARK  181  A    between atoms: _431  and  _433
REMARK  182  A    between atoms: _433  and  _434
REMARK  183  A    between atoms: _433  and  _436
REMARK  184  A    between atoms: _436  and  _437
REMARK  185  A    between atoms: _440  and  _442
REMARK  186  A    between atoms: _442  and  _443
REMARK  187  A    between atoms: _445  and  _447
REMARK  188  A    between atoms: _447  and  _448
REMARK  189  A    between atoms: _450  and  _452
REMARK  190  A    between atoms: _452  and  _453
REMARK  191  A    between atoms: _452  and  _455
REMARK  192  A    between atoms: _455  and  _456
REMARK  193  A    between atoms: _459  and  _461
REMARK  194  A    between atoms: _461  and  _462
REMARK  195  A    between atoms: _461  and  _464
REMARK  196  A    between atoms: _464  and  _465
REMARK  197  A    between atoms: _468  and  _470
REMARK  198  A    between atoms: _470  and  _471
REMARK  199  A    between atoms: _470  and  _473
REMARK  200  A    between atoms: _473  and  _474
REMARK  201  A    between atoms: _478  and  _479
REMARK  202  A    between atoms: _484  and  _486
REMARK  203  A    between atoms: _486  and  _487
REMARK  204  A    between atoms: _486  and  _489
REMARK  205  A    between atoms: _492  and  _494
REMARK  206  A    between atoms: _494  and  _495
REMARK  207  A    between atoms: _494  and  _497
REMARK  208  A    between atoms: _497  and  _498
REMARK  209  A    between atoms: _503  and  _505
REMARK  210  A    between atoms: _505  and  _506
REMARK  211  A    between atoms: _505  and  _508
REMARK  212  A    between atoms: _508  and  _509
REMARK  213  A    between atoms: _512  and  _514
REMARK  214  A    between atoms: _514  and  _515
REMARK  215  A    between atoms: _514  and  _517
REMARK  216  A    between atoms: _517  and  _518
REMARK  217  A    between atoms: _521  and  _523
REMARK  218  A    between atoms: _523  and  _524
REMARK  219  A    between atoms: _526  and  _528
REMARK  220  A    between atoms: _528  and  _529
REMARK  221  A    between atoms: _528  and  _531
REMARK  222  A    between atoms: _531  and  _532
REMARK  223  A    between atoms: _532  and  _533
REMARK  224  A    between atoms: _533  and  _534
REMARK  225  A    between atoms: _543  and  _545
REMARK  226  A    between atoms: _545  and  _546
REMARK  227  A    between atoms: _545  and  _548
REMARK  228  A    between atoms: _548  and  _549
REMARK                            x       y       z     vdW  Elec       q    Type
REMARK                         _______ _______ _______ _____ _____    ______ ____
ROOT
ATOM      1  O   HOH     1      -8.022  23.720  22.194  0.00  0.00    +0.000 OA
ENDROOT
TORSDOF 0
REMARK  Name = ../refined-set-2016/4ll3/4ll3_pocket.pdb
REMARK  228 active torsions:
REMARK  status: ('A' for Active; 'I' for Inactive)
REMARK    1  A    between atoms: _1  and  _3
REMARK    2  A    between atoms: _3  and  _4
REMARK    3  A    between atoms: _3  and  _6
REMARK    4  A    between atoms: _6  and  _7
REMARK    5  A    between atoms: _7  and  _8
REMARK    6  A    between atoms: _8  and  _9
REMARK    7  A    between atoms: _18  and  _20
REMARK    8  A    between atoms: _20  and  _21
REMARK    9  A    between atoms: _20  and  _23
REMARK   10  A    between atoms: _23  and  _24
REMARK   11  A    between atoms: _27  and  _29
REMARK   12  A    between atoms: _29  and  _30
REMARK   13  A    between atoms: _29  and  _32
REMARK   14  A    between atoms: _32  and  _33
REMARK   15  A    between atoms: _36  and  _38
REMARK   16  A    between atoms: _38  and  _39
REMARK   17  A    between atoms: _38  and  _41
REMARK   18  A    between atoms: _41  and  _42
REMARK   19  A    between atoms: _45  and  _47
REMARK   20  A    between atoms: _47  and  _48
REMARK   21  A    between atoms: _47  and  _50
REMARK   22  A    between atoms: _50  and  _51
REMARK   23  A    between atoms: _54  and  _56
REMARK   24  A    between atoms: _56  and  _57
REMARK   25  A    between atoms: _59  and  _61
REMARK   26  A    between atoms: _61  and  _62
REMARK   27  A    between atoms: _65  and  _67
REMARK   28  A    between atoms: _67  and  _68
REMARK   29  A    between atoms: _67  and  _70
REMARK   30  A    between atoms: _70  and  _71
REMARK   31  A    between atoms: _74  and  _76
REMARK   32  A    between atoms: _76  and  _77
REMARK   33  A    between atoms: _76  and  _79
REMARK   34  A    between atoms: _79  and  _80
REMARK   35  A    between atoms: _80  and  _82
REMARK   36  A    between atoms: _83  and  _85
REMARK   37  A    between atoms: _85  and  _86
REMARK   38  A    between atoms: _85  and  _88
REMARK   39  A    between atoms: _88  and  _89
REMARK   40  A    between atoms: _92  and  _94
REMARK   41  A    between atoms: _94  and  _95
REMARK   42  A    between atoms: _94  and  _97
REMARK   43  A    between atoms: _100  and  _102
REMARK   44  A    between atoms: _102  and  _103
REMARK   45  A    between atoms: _102  and  _105
REMARK   46  A    between atoms: _105  and  _106
REMARK   47  A    between atoms: _106  and  _107
REMARK   48  A    between atoms: _107  and  _108
REMARK   49  A    between atoms: _108  and  _109
REMARK   50  A    between atoms: _113  and  _115
REMARK   51  A    between atoms: _115  and  _116
REMARK   52  A    between atoms: _115  and  _118
REMARK   53  A    between atoms: _118  and  _119
REMARK   54  A    between atoms: _119  and  _120
REMARK   55  A    between atoms: _122  and  _124
REMARK   56  A    between atoms: _124  and  _125
REMARK   57  A    between atoms: _124  and  _127
REMARK   58  A    between atoms: _127  and  _128
REMARK   59  A    between atoms: _131  and  _133
REMARK   60  A    between atoms: _133  and  _134
REMARK   61  A    between atoms: _136  and  _138
REMARK   62  A    between atoms: _138  and  _139
REMARK   63  A    between atoms: _141  and  _143
REMARK   64  A    between atoms: _143  and  _144
REMARK   65  A    between atoms: _143  and  _146
REMARK   66  A    between atoms: _146  and  _147
REMARK   67  A    between atoms: _150  and  _152
REMARK   68  A    between atoms: _152  and  _153
REMARK   69  A    between atoms: _155  and  _157
REMARK   70  A    between atoms: _157  and  _158
REMARK   71  A    between atoms: _160  and  _162
REMARK   72  A    between atoms: _162  and  _163
REMARK   73  A    between atoms: _162  and  _165
REMARK   74  A    between atoms: _165  and  _166
REMARK   75  A    between atoms: _172  and  _174
REMARK   76  A    between atoms: _174  and  _175
REMARK   77  A    between atoms: _174  and  _177
REMARK   78  A    between atoms: _177  and  _178
REMARK   79  A    between atoms: _181  and  _183
REMARK   80  A    between atoms: _183  and  _184
REMARK   81  A    between atoms: _183  and  _186
REMARK   82  A    between atoms: _189  and  _191
REMARK   83  A    between atoms: _191  and  _192
REMARK   84  A    between atoms: _191  and  _194
REMARK   85  A    between atoms: _194  and  _195
REMARK   86  A    between atoms: _199  and  _200
REMARK   87  A    between atoms: _205  and  _207
REMARK   88  A    between atoms: _207  and  _208
REMARK   89  A    between atoms: _207  and  _210
REMARK   90  A    between atoms: _210  and  _211
REMARK   91  A    between atoms: _215  and  _216
REMARK   92  A    between atoms: _221  and  _223
REMARK   93  A    between atoms: _223  and  _224
REMARK   94  A    between atoms: _223  and  _226
REMARK   95  A    between atoms: _229  and  _231
REMARK   96  A    between atoms: _231  and  _232
REMARK   97  A    between atoms: _231  and  _234
REMARK   98  A    between atoms: _234  and  _235
REMARK   99  A    between atoms: _240  and  _242
REMARK  100  A    between atoms: _242  and  _243
REMARK  101  A    between atoms: _242  and  _245
REMARK  102  A    between atoms: _245  and  _246
REMARK  103  A    between atoms: _249  and  _251
REMARK  104  A    between atoms: _251  and  _252
REMARK  105  A    between atoms: _251  and  _254
REMARK  106  A    between atoms: _254  and  _255
REMARK  107  A    between atoms: _258  and  _260
REMARK  108  A    between atoms: _260  and  _261
REMARK  109  A    between atoms: _263  and  _265
REMARK  110  A    between atoms: _265  and  _266
REMARK  111  A    between atoms: _265  and  _268
REMARK  112  A    between atoms: _268  and  _269
REMARK  113  A    between atoms: _269  and  _270
REMARK  114  A    between atoms: _270  and  _271
REMARK  115  A    between atoms: _280  and  _282
REMARK  116  A    between atoms: _282  and  _283
REMARK  117  A    between atoms: _282  and  _285
REMARK  118  A    between atoms: _285  and  _286
REMARK  119  A    between atoms: _291  and  _293
REMARK  120  A    between atoms: _293  and  _294
REMARK  121  A    between atoms: _293  and  _296
REMARK  122  A    between atoms: _296  and  _297
REMARK  123  A    between atoms: _297  and  _298
REMARK  124  A    between atoms: _298  and  _299
REMARK  125  A    between atoms: _308  and  _310
REMARK  126  A    between atoms: _310  and  _311
REMARK  127  A    between atoms: _310  and  _313
REMARK  128  A    between atoms: _313  and  _314
REMARK  129  A    between atoms: _317  and  _319
REMARK  130  A    between atoms: _319  and  _320
REMARK  131  A    between atoms: _319  and  _322
REMARK  132  A    between atoms: _322  and  _323
REMARK  133  A    between atoms: _326  and  _328
REMARK  134  A    between atoms: _328  and  _329
REMARK  135  A    between atoms: _328  and  _331
REMARK  136  A    between atoms: _331  and  _332
REMARK  137  A    between atoms: _335  and  _337
REMARK  138  A    between atoms: _337  and  _338
REMARK  139  A    between atoms: _337  and  _340
REMARK  140  A    between atoms: _340  and  _341
REMARK  141  A    between atoms: _344  and  _346
REMARK  142  A    between atoms: _346  and  _347
REMARK  143  A    between atoms: _349  and  _351
REMARK  144  A    between atoms: _351  and  _352
REMARK  145  A    between atoms: _355  and  _357
REMARK  146  A    between atoms: _357  and  _358
REMARK  147  A    between atoms: _357  and  _360
REMARK  148  A    between atoms: _360  and  _361
REMARK  149  A    between atoms: _364  and  _366
REMARK  150  A    between atoms: _366  and  _367
REMARK  151  A    between atoms: _366  and  _369
REMARK  152  A    between atoms: _369  and  _370
REMARK  153  A    between atoms: _370  and  _372
REMARK  154  A    between atoms: _373  and  _375
REMARK  155  A    between atoms: _375  and  _376
REMARK  156  A    between atoms: _375  and  _378
REMARK  157  A    between atoms: _378  and  _379
REMARK  158  A    between atoms: _382  and  _384
REMARK  159  A    between atoms: _384  and  _385
REMARK  160  A    between atoms: _384  and  _387
REMARK  161  A    between atoms: _390  and  _392
REMARK  162  A    between atoms: _392  and  _393
REMARK  163  A    between atoms: _392  and  _395
REMARK  164  A    between atoms: _395  and  _396
REMARK  165  A    between atoms: _396  and  _397
REMARK  166  A    between atoms: _397  and  _398
REMARK  167  A    between atoms: _398  and  _399
REMARK  168  A    between atoms: _403  and  _405
REMARK  169  A    between atoms: _405  and  _406
REMARK  170  A    between atoms: _405  and  _408
REMARK  171  A    between atoms: _408  and  _409
REMARK  172  A    between atoms: _409  and  _410
REMARK  173  A    between atoms: _412  and  _414
REMARK  174  A    between atoms: _414  and  _415
REMARK  175  A    between atoms: _414  and  _417
REMARK  176  A    between atoms: _417  and  _418
REMARK  177  A    between atoms: _421  and  _423
REMARK  178  A    between atoms: _423  and  _424
REMARK  179  A    between atoms: _426  and  _428
REMARK  180  A    between atoms: _428  and  _429
REMARK  181  A    between atoms: _431  and  _433
REMARK  182  A    between atoms: _433  and  _434
REMARK  183  A    between atoms: _433  and  _436
REMARK  184  A    between atoms: _436  and  _437
REMARK  185  A    between atoms: _440  and  _442
REMARK  186  A    between atoms: _442  and  _443
REMARK  187  A    between atoms: _445  and  _447
REMARK  188  A    between atoms: _447  and  _448
REMARK  189  A    between atoms: _450  and  _452
REMARK  190  A    between atoms: _452  and  _453
REMARK  191  A    between atoms: _452  and  _455
REMARK  192  A    between atoms: _455  and  _456
REMARK  193  A    between atoms: _459  and  _461
REMARK  194  A    between atoms: _461  and  _462
REMARK  195  A    between atoms: _461  and  _464
REMARK  196  A    between atoms: _464  and  _465
REMARK  197  A    between atoms: _468  and  _470
REMARK  198  A    between atoms: _470  and  _471
REMARK  199  A    between atoms: _470  and  _473
REMARK  200  A    between atoms: _473  and  _474
REMARK  201  A    between atoms: _478  and  _479
REMARK  202  A    between atoms: _484  and  _486
REMARK  203  A    between atoms: _486  and  _487
REMARK  204  A    between atoms: _486  and  _489
REMARK  205  A    between atoms: _492  and  _494
REMARK  206  A    between atoms: _494  and  _495
REMARK  207  A    between atoms: _494  and  _497
REMARK  208  A    between atoms: _497  and  _498
REMARK  209  A    between atoms: _503  and  _505
REMARK  210  A    between atoms: _505  and  _506
REMARK  211  A    between atoms: _505  and  _508
REMARK  212  A    between atoms: _508  and  _509
REMARK  213  A    between atoms: _512  and  _514
REMARK  214  A    between atoms: _514  and  _515
REMARK  215  A    between atoms: _514  and  _517
REMARK  216  A    between atoms: _517  and  _518
REMARK  217  A    between atoms: _521  and  _523
REMARK  218  A    between atoms: _523  and  _524
REMARK  219  A    between atoms: _526  and  _528
REMARK  220  A    between atoms: _528  and  _529
REMARK  221  A    between atoms: _528  and  _531
REMARK  222  A    between atoms: _531  and  _532
REMARK  223  A    between atoms: _532  and  _533
REMARK  224  A    between atoms: _533  and  _534
REMARK  225  A    between atoms: _543  and  _545
REMARK  226  A    between atoms: _545  and  _546
REMARK  227  A    between atoms: _545  and  _548
REMARK  228  A    between atoms: _548  and  _549
REMARK                            x       y       z     vdW  Elec       q    Type
REMARK                         _______ _______ _______ _____ _____    ______ ____
ROOT
ATOM      1  O   HOH     1      -0.419  11.937  24.369  0.00  0.00    +0.000 OA
ENDROOT
TORSDOF 0
REMARK  Name = ../refined-set-2016/4ll3/4ll3_pocket.pdb
REMARK  228 active torsions:
REMARK  status: ('A' for Active; 'I' for Inactive)
REMARK    1  A    between atoms: _1  and  _3
REMARK    2  A    between atoms: _3  and  _4
REMARK    3  A    between atoms: _3  and  _6
REMARK    4  A    between atoms: _6  and  _7
REMARK    5  A    between atoms: _7  and  _8
REMARK    6  A    between atoms: _8  and  _9
REMARK    7  A    between atoms: _18  and  _20
REMARK    8  A    between atoms: _20  and  _21
REMARK    9  A    between atoms: _20  and  _23
REMARK   10  A    between atoms: _23  and  _24
REMARK   11  A    between atoms: _27  and  _29
REMARK   12  A    between atoms: _29  and  _30
REMARK   13  A    between atoms: _29  and  _32
REMARK   14  A    between atoms: _32  and  _33
REMARK   15  A    between atoms: _36  and  _38
REMARK   16  A    between atoms: _38  and  _39
REMARK   17  A    between atoms: _38  and  _41
REMARK   18  A    between atoms: _41  and  _42
REMARK   19  A    between atoms: _45  and  _47
REMARK   20  A    between atoms: _47  and  _48
REMARK   21  A    between atoms: _47  and  _50
REMARK   22  A    between atoms: _50  and  _51
REMARK   23  A    between atoms: _54  and  _56
REMARK   24  A    between atoms: _56  and  _57
REMARK   25  A    between atoms: _59  and  _61
REMARK   26  A    between atoms: _61  and  _62
REMARK   27  A    between atoms: _65  and  _67
REMARK   28  A    between atoms: _67  and  _68
REMARK   29  A    between atoms: _67  and  _70
REMARK   30  A    between atoms: _70  and  _71
REMARK   31  A    between atoms: _74  and  _76
REMARK   32  A    between atoms: _76  and  _77
REMARK   33  A    between atoms: _76  and  _79
REMARK   34  A    between atoms: _79  and  _80
REMARK   35  A    between atoms: _80  and  _82
REMARK   36  A    between atoms: _83  and  _85
REMARK   37  A    between atoms: _85  and  _86
REMARK   38  A    between atoms: _85  and  _88
REMARK   39  A    between atoms: _88  and  _89
REMARK   40  A    between atoms: _92  and  _94
REMARK   41  A    between atoms: _94  and  _95
REMARK   42  A    between atoms: _94  and  _97
REMARK   43  A    between atoms: _100  and  _102
REMARK   44  A    between atoms: _102  and  _103
REMARK   45  A    between atoms: _102  and  _105
REMARK   46  A    between atoms: _105  and  _106
REMARK   47  A    between atoms: _106  and  _107
REMARK   48  A    between atoms: _107  and  _108
REMARK   49  A    between atoms: _108  and  _109
REMARK   50  A    between atoms: _113  and  _115
REMARK   51  A    between atoms: _115  and  _116
REMARK   52  A    between atoms: _115  and  _118
REMARK   53  A    between atoms: _118  and  _119
REMARK   54  A    between atoms: _119  and  _120
REMARK   55  A    between atoms: _122  and  _124
REMARK   56  A    between atoms: _124  and  _125
REMARK   57  A    between atoms: _124  and  _127
REMARK   58  A    between atoms: _127  and  _128
REMARK   59  A    between atoms: _131  and  _133
REMARK   60  A    between atoms: _133  and  _134
REMARK   61  A    between atoms: _136  and  _138
REMARK   62  A    between atoms: _138  and  _139
REMARK   63  A    between atoms: _141  and  _143
REMARK   64  A    between atoms: _143  and  _144
REMARK   65  A    between atoms: _143  and  _146
REMARK   66  A    between atoms: _146  and  _147
REMARK   67  A    between atoms: _150  and  _152
REMARK   68  A    between atoms: _152  and  _153
REMARK   69  A    between atoms: _155  and  _157
REMARK   70  A    between atoms: _157  and  _158
REMARK   71  A    between atoms: _160  and  _162
REMARK   72  A    between atoms: _162  and  _163
REMARK   73  A    between atoms: _162  and  _165
REMARK   74  A    between atoms: _165  and  _166
REMARK   75  A    between atoms: _172  and  _174
REMARK   76  A    between atoms: _174  and  _175
REMARK   77  A    between atoms: _174  and  _177
REMARK   78  A    between atoms: _177  and  _178
REMARK   79  A    between atoms: _181  and  _183
REMARK   80  A    between atoms: _183  and  _184
REMARK   81  A    between atoms: _183  and  _186
REMARK   82  A    between atoms: _189  and  _191
REMARK   83  A    between atoms: _191  and  _192
REMARK   84  A    between atoms: _191  and  _194
REMARK   85  A    between atoms: _194  and  _195
REMARK   86  A    between atoms: _199  and  _200
REMARK   87  A    between atoms: _205  and  _207
REMARK   88  A    between atoms: _207  and  _208
REMARK   89  A    between atoms: _207  and  _210
REMARK   90  A    between atoms: _210  and  _211
REMARK   91  A    between atoms: _215  and  _216
REMARK   92  A    between atoms: _221  and  _223
REMARK   93  A    between atoms: _223  and  _224
REMARK   94  A    between atoms: _223  and  _226
REMARK   95  A    between atoms: _229  and  _231
REMARK   96  A    between atoms: _231  and  _232
REMARK   97  A    between atoms: _231  and  _234
REMARK   98  A    between atoms: _234  and  _235
REMARK   99  A    between atoms: _240  and  _242
REMARK  100  A    between atoms: _242  and  _243
REMARK  101  A    between atoms: _242  and  _245
REMARK  102  A    between atoms: _245  and  _246
REMARK  103  A    between atoms: _249  and  _251
REMARK  104  A    between atoms: _251  and  _252
REMARK  105  A    between atoms: _251  and  _254
REMARK  106  A    between atoms: _254  and  _255
REMARK  107  A    between atoms: _258  and  _260
REMARK  108  A    between atoms: _260  and  _261
REMARK  109  A    between atoms: _263  and  _265
REMARK  110  A    between atoms: _265  and  _266
REMARK  111  A    between atoms: _265  and  _268
REMARK  112  A    between atoms: _268  and  _269
REMARK  113  A    between atoms: _269  and  _270
REMARK  114  A    between atoms: _270  and  _271
REMARK  115  A    between atoms: _280  and  _282
REMARK  116  A    between atoms: _282  and  _283
REMARK  117  A    between atoms: _282  and  _285
REMARK  118  A    between atoms: _285  and  _286
REMARK  119  A    between atoms: _291  and  _293
REMARK  120  A    between atoms: _293  and  _294
REMARK  121  A    between atoms: _293  and  _296
REMARK  122  A    between atoms: _296  and  _297
REMARK  123  A    between atoms: _297  and  _298
REMARK  124  A    between atoms: _298  and  _299
REMARK  125  A    between atoms: _308  and  _310
REMARK  126  A    between atoms: _310  and  _311
REMARK  127  A    between atoms: _310  and  _313
REMARK  128  A    between atoms: _313  and  _314
REMARK  129  A    between atoms: _317  and  _319
REMARK  130  A    between atoms: _319  and  _320
REMARK  131  A    between atoms: _319  and  _322
REMARK  132  A    between atoms: _322  and  _323
REMARK  133  A    between atoms: _326  and  _328
REMARK  134  A    between atoms: _328  and  _329
REMARK  135  A    between atoms: _328  and  _331
REMARK  136  A    between atoms: _331  and  _332
REMARK  137  A    between atoms: _335  and  _337
REMARK  138  A    between atoms: _337  and  _338
REMARK  139  A    between atoms: _337  and  _340
REMARK  140  A    between atoms: _340  and  _341
REMARK  141  A    between atoms: _344  and  _346
REMARK  142  A    between atoms: _346  and  _347
REMARK  143  A    between atoms: _349  and  _351
REMARK  144  A    between atoms: _351  and  _352
REMARK  145  A    between atoms: _355  and  _357
REMARK  146  A    between atoms: _357  and  _358
REMARK  147  A    between atoms: _357  and  _360
REMARK  148  A    between atoms: _360  and  _361
REMARK  149  A    between atoms: _364  and  _366
REMARK  150  A    between atoms: _366  and  _367
REMARK  151  A    between atoms: _366  and  _369
REMARK  152  A    between atoms: _369  and  _370
REMARK  153  A    between atoms: _370  and  _372
REMARK  154  A    between atoms: _373  and  _375
REMARK  155  A    between atoms: _375  and  _376
REMARK  156  A    between atoms: _375  and  _378
REMARK  157  A    between atoms: _378  and  _379
REMARK  158  A    between atoms: _382  and  _384
REMARK  159  A    between atoms: _384  and  _385
REMARK  160  A    between atoms: _384  and  _387
REMARK  161  A    between atoms: _390  and  _392
REMARK  162  A    between atoms: _392  and  _393
REMARK  163  A    between atoms: _392  and  _395
REMARK  164  A    between atoms: _395  and  _396
REMARK  165  A    between atoms: _396  and  _397
REMARK  166  A    between atoms: _397  and  _398
REMARK  167  A    between atoms: _398  and  _399
REMARK  168  A    between atoms: _403  and  _405
REMARK  169  A    between atoms: _405  and  _406
REMARK  170  A    between atoms: _405  and  _408
REMARK  171  A    between atoms: _408  and  _409
REMARK  172  A    between atoms: _409  and  _410
REMARK  173  A    between atoms: _412  and  _414
REMARK  174  A    between atoms: _414  and  _415
REMARK  175  A    between atoms: _414  and  _417
REMARK  176  A    between atoms: _417  and  _418
REMARK  177  A    between atoms: _421  and  _423
REMARK  178  A    between atoms: _423  and  _424
REMARK  179  A    between atoms: _426  and  _428
REMARK  180  A    between atoms: _428  and  _429
REMARK  181  A    between atoms: _431  and  _433
REMARK  182  A    between atoms: _433  and  _434
REMARK  183  A    between atoms: _433  and  _436
REMARK  184  A    between atoms: _436  and  _437
REMARK  185  A    between atoms: _440  and  _442
REMARK  186  A    between atoms: _442  and  _443
REMARK  187  A    between atoms: _445  and  _447
REMARK  188  A    between atoms: _447  and  _448
REMARK  189  A    between atoms: _450  and  _452
REMARK  190  A    between atoms: _452  and  _453
REMARK  191  A    between atoms: _452  and  _455
REMARK  192  A    between atoms: _455  and  _456
REMARK  193  A    between atoms: _459  and  _461
REMARK  194  A    between atoms: _461  and  _462
REMARK  195  A    between atoms: _461  and  _464
REMARK  196  A    between atoms: _464  and  _465
REMARK  197  A    between atoms: _468  and  _470
REMARK  198  A    between atoms: _470  and  _471
REMARK  199  A    between atoms: _470  and  _473
REMARK  200  A    between atoms: _473  and  _474
REMARK  201  A    between atoms: _478  and  _479
REMARK  202  A    between atoms: _484  and  _486
REMARK  203  A    between atoms: _486  and  _487
REMARK  204  A    between atoms: _486  and  _489
REMARK  205  A    between atoms: _492  and  _494
REMARK  206  A    between atoms: _494  and  _495
REMARK  207  A    between atoms: _494  and  _497
REMARK  208  A    between atoms: _497  and  _498
REMARK  209  A    between atoms: _503  and  _505
REMARK  210  A    between atoms: _505  and  _506
REMARK  211  A    between atoms: _505  and  _508
REMARK  212  A    between atoms: _508  and  _509
REMARK  213  A    between atoms: _512  and  _514
REMARK  214  A    between atoms: _514  and  _515
REMARK  215  A    between atoms: _514  and  _517
REMARK  216  A    between atoms: _517  and  _518
REMARK  217  A    between atoms: _521  and  _523
REMARK  218  A    between atoms: _523  and  _524
REMARK  219  A    between atoms: _526  and  _528
REMARK  220  A    between atoms: _528  and  _529
REMARK  221  A    between atoms: _528  and  _531
REMARK  222  A    between atoms: _531  and  _532
REMARK  223  A    between atoms: _532  and  _533
REMARK  224  A    between atoms: _533  and  _534
REMARK  225  A    between atoms: _543  and  _545
REMARK  226  A    between atoms: _545  and  _546
REMARK  227  A    between atoms: _545  and  _548
REMARK  228  A    between atoms: _548  and  _549
REMARK                            x       y       z     vdW  Elec       q    Type
REMARK                         _______ _______ _______ _____ _____    ______ ____
ROOT
ATOM      1  O   HOH     1      -6.185  21.695  22.395  0.00  0.00    +0.000 OA
ENDROOT
TORSDOF 0
REMARK  Name = ../refined-set-2016/4ll3/4ll3_pocket.pdb
REMARK  228 active torsions:
REMARK  status: ('A' for Active; 'I' for Inactive)
REMARK    1  A    between atoms: _1  and  _3
REMARK    2  A    between atoms: _3  and  _4
REMARK    3  A    between atoms: _3  and  _6
REMARK    4  A    between atoms: _6  and  _7
REMARK    5  A    between atoms: _7  and  _8
REMARK    6  A    between atoms: _8  and  _9
REMARK    7  A    between atoms: _18  and  _20
REMARK    8  A    between atoms: _20  and  _21
REMARK    9  A    between atoms: _20  and  _23
REMARK   10  A    between atoms: _23  and  _24
REMARK   11  A    between atoms: _27  and  _29
REMARK   12  A    between atoms: _29  and  _30
REMARK   13  A    between atoms: _29  and  _32
REMARK   14  A    between atoms: _32  and  _33
REMARK   15  A    between atoms: _36  and  _38
REMARK   16  A    between atoms: _38  and  _39
REMARK   17  A    between atoms: _38  and  _41
REMARK   18  A    between atoms: _41  and  _42
REMARK   19  A    between atoms: _45  and  _47
REMARK   20  A    between atoms: _47  and  _48
REMARK   21  A    between atoms: _47  and  _50
REMARK   22  A    between atoms: _50  and  _51
REMARK   23  A    between atoms: _54  and  _56
REMARK   24  A    between atoms: _56  and  _57
REMARK   25  A    between atoms: _59  and  _61
REMARK   26  A    between atoms: _61  and  _62
REMARK   27  A    between atoms: _65  and  _67
REMARK   28  A    between atoms: _67  and  _68
REMARK   29  A    between atoms: _67  and  _70
REMARK   30  A    between atoms: _70  and  _71
REMARK   31  A    between atoms: _74  and  _76
REMARK   32  A    between atoms: _76  and  _77
REMARK   33  A    between atoms: _76  and  _79
REMARK   34  A    between atoms: _79  and  _80
REMARK   35  A    between atoms: _80  and  _82
REMARK   36  A    between atoms: _83  and  _85
REMARK   37  A    between atoms: _85  and  _86
REMARK   38  A    between atoms: _85  and  _88
REMARK   39  A    between atoms: _88  and  _89
REMARK   40  A    between atoms: _92  and  _94
REMARK   41  A    between atoms: _94  and  _95
REMARK   42  A    between atoms: _94  and  _97
REMARK   43  A    between atoms: _100  and  _102
REMARK   44  A    between atoms: _102  and  _103
REMARK   45  A    between atoms: _102  and  _105
REMARK   46  A    between atoms: _105  and  _106
REMARK   47  A    between atoms: _106  and  _107
REMARK   48  A    between atoms: _107  and  _108
REMARK   49  A    between atoms: _108  and  _109
REMARK   50  A    between atoms: _113  and  _115
REMARK   51  A    between atoms: _115  and  _116
REMARK   52  A    between atoms: _115  and  _118
REMARK   53  A    between atoms: _118  and  _119
REMARK   54  A    between atoms: _119  and  _120
REMARK   55  A    between atoms: _122  and  _124
REMARK   56  A    between atoms: _124  and  _125
REMARK   57  A    between atoms: _124  and  _127
REMARK   58  A    between atoms: _127  and  _128
REMARK   59  A    between atoms: _131  and  _133
REMARK   60  A    between atoms: _133  and  _134
REMARK   61  A    between atoms: _136  and  _138
REMARK   62  A    between atoms: _138  and  _139
REMARK   63  A    between atoms: _141  and  _143
REMARK   64  A    between atoms: _143  and  _144
REMARK   65  A    between atoms: _143  and  _146
REMARK   66  A    between atoms: _146  and  _147
REMARK   67  A    between atoms: _150  and  _152
REMARK   68  A    between atoms: _152  and  _153
REMARK   69  A    between atoms: _155  and  _157
REMARK   70  A    between atoms: _157  and  _158
REMARK   71  A    between atoms: _160  and  _162
REMARK   72  A    between atoms: _162  and  _163
REMARK   73  A    between atoms: _162  and  _165
REMARK   74  A    between atoms: _165  and  _166
REMARK   75  A    between atoms: _172  and  _174
REMARK   76  A    between atoms: _174  and  _175
REMARK   77  A    between atoms: _174  and  _177
REMARK   78  A    between atoms: _177  and  _178
REMARK   79  A    between atoms: _181  and  _183
REMARK   80  A    between atoms: _183  and  _184
REMARK   81  A    between atoms: _183  and  _186
REMARK   82  A    between atoms: _189  and  _191
REMARK   83  A    between atoms: _191  and  _192
REMARK   84  A    between atoms: _191  and  _194
REMARK   85  A    between atoms: _194  and  _195
REMARK   86  A    between atoms: _199  and  _200
REMARK   87  A    between atoms: _205  and  _207
REMARK   88  A    between atoms: _207  and  _208
REMARK   89  A    between atoms: _207  and  _210
REMARK   90  A    between atoms: _210  and  _211
REMARK   91  A    between atoms: _215  and  _216
REMARK   92  A    between atoms: _221  and  _223
REMARK   93  A    between atoms: _223  and  _224
REMARK   94  A    between atoms: _223  and  _226
REMARK   95  A    between atoms: _229  and  _231
REMARK   96  A    between atoms: _231  and  _232
REMARK   97  A    between atoms: _231  and  _234
REMARK   98  A    between atoms: _234  and  _235
REMARK   99  A    between atoms: _240  and  _242
REMARK  100  A    between atoms: _242  and  _243
REMARK  101  A    between atoms: _242  and  _245
REMARK  102  A    between atoms: _245  and  _246
REMARK  103  A    between atoms: _249  and  _251
REMARK  104  A    between atoms: _251  and  _252
REMARK  105  A    between atoms: _251  and  _254
REMARK  106  A    between atoms: _254  and  _255
REMARK  107  A    between atoms: _258  and  _260
REMARK  108  A    between atoms: _260  and  _261
REMARK  109  A    between atoms: _263  and  _265
REMARK  110  A    between atoms: _265  and  _266
REMARK  111  A    between atoms: _265  and  _268
REMARK  112  A    between atoms: _268  and  _269
REMARK  113  A    between atoms: _269  and  _270
REMARK  114  A    between atoms: _270  and  _271
REMARK  115  A    between atoms: _280  and  _282
REMARK  116  A    between atoms: _282  and  _283
REMARK  117  A    between atoms: _282  and  _285
REMARK  118  A    between atoms: _285  and  _286
REMARK  119  A    between atoms: _291  and  _293
REMARK  120  A    between atoms: _293  and  _294
REMARK  121  A    between atoms: _293  and  _296
REMARK  122  A    between atoms: _296  and  _297
REMARK  123  A    between atoms: _297  and  _298
REMARK  124  A    between atoms: _298  and  _299
REMARK  125  A    between atoms: _308  and  _310
REMARK  126  A    between atoms: _310  and  _311
REMARK  127  A    between atoms: _310  and  _313
REMARK  128  A    between atoms: _313  and  _314
REMARK  129  A    between atoms: _317  and  _319
REMARK  130  A    between atoms: _319  and  _320
REMARK  131  A    between atoms: _319  and  _322
REMARK  132  A    between atoms: _322  and  _323
REMARK  133  A    between atoms: _326  and  _328
REMARK  134  A    between atoms: _328  and  _329
REMARK  135  A    between atoms: _328  and  _331
REMARK  136  A    between atoms: _331  and  _332
REMARK  137  A    between atoms: _335  and  _337
REMARK  138  A    between atoms: _337  and  _338
REMARK  139  A    between atoms: _337  and  _340
REMARK  140  A    between atoms: _340  and  _341
REMARK  141  A    between atoms: _344  and  _346
REMARK  142  A    between atoms: _346  and  _347
REMARK  143  A    between atoms: _349  and  _351
REMARK  144  A    between atoms: _351  and  _352
REMARK  145  A    between atoms: _355  and  _357
REMARK  146  A    between atoms: _357  and  _358
REMARK  147  A    between atoms: _357  and  _360
REMARK  148  A    between atoms: _360  and  _361
REMARK  149  A    between atoms: _364  and  _366
REMARK  150  A    between atoms: _366  and  _367
REMARK  151  A    between atoms: _366  and  _369
REMARK  152  A    between atoms: _369  and  _370
REMARK  153  A    between atoms: _370  and  _372
REMARK  154  A    between atoms: _373  and  _375
REMARK  155  A    between atoms: _375  and  _376
REMARK  156  A    between atoms: _375  and  _378
REMARK  157  A    between atoms: _378  and  _379
REMARK  158  A    between atoms: _382  and  _384
REMARK  159  A    between atoms: _384  and  _385
REMARK  160  A    between atoms: _384  and  _387
REMARK  161  A    between atoms: _390  and  _392
REMARK  162  A    between atoms: _392  and  _393
REMARK  163  A    between atoms: _392  and  _395
REMARK  164  A    between atoms: _395  and  _396
REMARK  165  A    between atoms: _396  and  _397
REMARK  166  A    between atoms: _397  and  _398
REMARK  167  A    between atoms: _398  and  _399
REMARK  168  A    between atoms: _403  and  _405
REMARK  169  A    between atoms: _405  and  _406
REMARK  170  A    between atoms: _405  and  _408
REMARK  171  A    between atoms: _408  and  _409
REMARK  172  A    between atoms: _409  and  _410
REMARK  173  A    between atoms: _412  and  _414
REMARK  174  A    between atoms: _414  and  _415
REMARK  175  A    between atoms: _414  and  _417
REMARK  176  A    between atoms: _417  and  _418
REMARK  177  A    between atoms: _421  and  _423
REMARK  178  A    between atoms: _423  and  _424
REMARK  179  A    between atoms: _426  and  _428
REMARK  180  A    between atoms: _428  and  _429
REMARK  181  A    between atoms: _431  and  _433
REMARK  182  A    between atoms: _433  and  _434
REMARK  183  A    between atoms: _433  and  _436
REMARK  184  A    between atoms: _436  and  _437
REMARK  185  A    between atoms: _440  and  _442
REMARK  186  A    between atoms: _442  and  _443
REMARK  187  A    between atoms: _445  and  _447
REMARK  188  A    between atoms: _447  and  _448
REMARK  189  A    between atoms: _450  and  _452
REMARK  190  A    between atoms: _452  and  _453
REMARK  191  A    between atoms: _452  and  _455
REMARK  192  A    between atoms: _455  and  _456
REMARK  193  A    between atoms: _459  and  _461
REMARK  194  A    between atoms: _461  and  _462
REMARK  195  A    between atoms: _461  and  _464
REMARK  196  A    between atoms: _464  and  _465
REMARK  197  A    between atoms: _468  and  _470
REMARK  198  A    between atoms: _470  and  _471
REMARK  199  A    between atoms: _470  and  _473
REMARK  200  A    between atoms: _473  and  _474
REMARK  201  A    between atoms: _478  and  _479
REMARK  202  A    between atoms: _484  and  _486
REMARK  203  A    between atoms: _486  and  _487
REMARK  204  A    between atoms: _486  and  _489
REMARK  205  A    between atoms: _492  and  _494
REMARK  206  A    between atoms: _494  and  _495
REMARK  207  A    between atoms: _494  and  _497
REMARK  208  A    between atoms: _497  and  _498
REMARK  209  A    between atoms: _503  and  _505
REMARK  210  A    between atoms: _505  and  _506
REMARK  211  A    between atoms: _505  and  _508
REMARK  212  A    between atoms: _508  and  _509
REMARK  213  A    between atoms: _512  and  _514
REMARK  214  A    between atoms: _514  and  _515
REMARK  215  A    between atoms: _514  and  _517
REMARK  216  A    between atoms: _517  and  _518
REMARK  217  A    between atoms: _521  and  _523
REMARK  218  A    between atoms: _523  and  _524
REMARK  219  A    between atoms: _526  and  _528
REMARK  220  A    between atoms: _528  and  _529
REMARK  221  A    between atoms: _528  and  _531
REMARK  222  A    between atoms: _531  and  _532
REMARK  223  A    between atoms: _532  and  _533
REMARK  224  A    between atoms: _533  and  _534
REMARK  225  A    between atoms: _543  and  _545
REMARK  226  A    between atoms: _545  and  _546
REMARK  227  A    between atoms: _545  and  _548
REMARK  228  A    between atoms: _548  and  _549
REMARK                            x       y       z     vdW  Elec       q    Type
REMARK                         _______ _______ _______ _____ _____    ______ ____
ROOT
ATOM      1  O   HOH     1      -4.428  16.073  15.046  0.00  0.00    +0.000 OA
ENDROOT
TORSDOF 0
REMARK  Name = ../refined-set-2016/4ll3/4ll3_pocket.pdb
REMARK  228 active torsions:
REMARK  status: ('A' for Active; 'I' for Inactive)
REMARK    1  A    between atoms: _1  and  _3
REMARK    2  A    between atoms: _3  and  _4
REMARK    3  A    between atoms: _3  and  _6
REMARK    4  A    between atoms: _6  and  _7
REMARK    5  A    between atoms: _7  and  _8
REMARK    6  A    between atoms: _8  and  _9
REMARK    7  A    between atoms: _18  and  _20
REMARK    8  A    between atoms: _20  and  _21
REMARK    9  A    between atoms: _20  and  _23
REMARK   10  A    between atoms: _23  and  _24
REMARK   11  A    between atoms: _27  and  _29
REMARK   12  A    between atoms: _29  and  _30
REMARK   13  A    between atoms: _29  and  _32
REMARK   14  A    between atoms: _32  and  _33
REMARK   15  A    between atoms: _36  and  _38
REMARK   16  A    between atoms: _38  and  _39
REMARK   17  A    between atoms: _38  and  _41
REMARK   18  A    between atoms: _41  and  _42
REMARK   19  A    between atoms: _45  and  _47
REMARK   20  A    between atoms: _47  and  _48
REMARK   21  A    between atoms: _47  and  _50
REMARK   22  A    between atoms: _50  and  _51
REMARK   23  A    between atoms: _54  and  _56
REMARK   24  A    between atoms: _56  and  _57
REMARK   25  A    between atoms: _59  and  _61
REMARK   26  A    between atoms: _61  and  _62
REMARK   27  A    between atoms: _65  and  _67
REMARK   28  A    between atoms: _67  and  _68
REMARK   29  A    between atoms: _67  and  _70
REMARK   30  A    between atoms: _70  and  _71
REMARK   31  A    between atoms: _74  and  _76
REMARK   32  A    between atoms: _76  and  _77
REMARK   33  A    between atoms: _76  and  _79
REMARK   34  A    between atoms: _79  and  _80
REMARK   35  A    between atoms: _80  and  _82
REMARK   36  A    between atoms: _83  and  _85
REMARK   37  A    between atoms: _85  and  _86
REMARK   38  A    between atoms: _85  and  _88
REMARK   39  A    between atoms: _88  and  _89
REMARK   40  A    between atoms: _92  and  _94
REMARK   41  A    between atoms: _94  and  _95
REMARK   42  A    between atoms: _94  and  _97
REMARK   43  A    between atoms: _100  and  _102
REMARK   44  A    between atoms: _102  and  _103
REMARK   45  A    between atoms: _102  and  _105
REMARK   46  A    between atoms: _105  and  _106
REMARK   47  A    between atoms: _106  and  _107
REMARK   48  A    between atoms: _107  and  _108
REMARK   49  A    between atoms: _108  and  _109
REMARK   50  A    between atoms: _113  and  _115
REMARK   51  A    between atoms: _115  and  _116
REMARK   52  A    between atoms: _115  and  _118
REMARK   53  A    between atoms: _118  and  _119
REMARK   54  A    between atoms: _119  and  _120
REMARK   55  A    between atoms: _122  and  _124
REMARK   56  A    between atoms: _124  and  _125
REMARK   57  A    between atoms: _124  and  _127
REMARK   58  A    between atoms: _127  and  _128
REMARK   59  A    between atoms: _131  and  _133
REMARK   60  A    between atoms: _133  and  _134
REMARK   61  A    between atoms: _136  and  _138
REMARK   62  A    between atoms: _138  and  _139
REMARK   63  A    between atoms: _141  and  _143
REMARK   64  A    between atoms: _143  and  _144
REMARK   65  A    between atoms: _143  and  _146
REMARK   66  A    between atoms: _146  and  _147
REMARK   67  A    between atoms: _150  and  _152
REMARK   68  A    between atoms: _152  and  _153
REMARK   69  A    between atoms: _155  and  _157
REMARK   70  A    between atoms: _157  and  _158
REMARK   71  A    between atoms: _160  and  _162
REMARK   72  A    between atoms: _162  and  _163
REMARK   73  A    between atoms: _162  and  _165
REMARK   74  A    between atoms: _165  and  _166
REMARK   75  A    between atoms: _172  and  _174
REMARK   76  A    between atoms: _174  and  _175
REMARK   77  A    between atoms: _174  and  _177
REMARK   78  A    between atoms: _177  and  _178
REMARK   79  A    between atoms: _181  and  _183
REMARK   80  A    between atoms: _183  and  _184
REMARK   81  A    between atoms: _183  and  _186
REMARK   82  A    between atoms: _189  and  _191
REMARK   83  A    between atoms: _191  and  _192
REMARK   84  A    between atoms: _191  and  _194
REMARK   85  A    between atoms: _194  and  _195
REMARK   86  A    between atoms: _199  and  _200
REMARK   87  A    between atoms: _205  and  _207
REMARK   88  A    between atoms: _207  and  _208
REMARK   89  A    between atoms: _207  and  _210
REMARK   90  A    between atoms: _210  and  _211
REMARK   91  A    between atoms: _215  and  _216
REMARK   92  A    between atoms: _221  and  _223
REMARK   93  A    between atoms: _223  and  _224
REMARK   94  A    between atoms: _223  and  _226
REMARK   95  A    between atoms: _229  and  _231
REMARK   96  A    between atoms: _231  and  _232
REMARK   97  A    between atoms: _231  and  _234
REMARK   98  A    between atoms: _234  and  _235
REMARK   99  A    between atoms: _240  and  _242
REMARK  100  A    between atoms: _242  and  _243
REMARK  101  A    between atoms: _242  and  _245
REMARK  102  A    between atoms: _245  and  _246
REMARK  103  A    between atoms: _249  and  _251
REMARK  104  A    between atoms: _251  and  _252
REMARK  105  A    between atoms: _251  and  _254
REMARK  106  A    between atoms: _254  and  _255
REMARK  107  A    between atoms: _258  and  _260
REMARK  108  A    between atoms: _260  and  _261
REMARK  109  A    between atoms: _263  and  _265
REMARK  110  A    between atoms: _265  and  _266
REMARK  111  A    between atoms: _265  and  _268
REMARK  112  A    between atoms: _268  and  _269
REMARK  113  A    between atoms: _269  and  _270
REMARK  114  A    between atoms: _270  and  _271
REMARK  115  A    between atoms: _280  and  _282
REMARK  116  A    between atoms: _282  and  _283
REMARK  117  A    between atoms: _282  and  _285
REMARK  118  A    between atoms: _285  and  _286
REMARK  119  A    between atoms: _291  and  _293
REMARK  120  A    between atoms: _293  and  _294
REMARK  121  A    between atoms: _293  and  _296
REMARK  122  A    between atoms: _296  and  _297
REMARK  123  A    between atoms: _297  and  _298
REMARK  124  A    between atoms: _298  and  _299
REMARK  125  A    between atoms: _308  and  _310
REMARK  126  A    between atoms: _310  and  _311
REMARK  127  A    between atoms: _310  and  _313
REMARK  128  A    between atoms: _313  and  _314
REMARK  129  A    between atoms: _317  and  _319
REMARK  130  A    between atoms: _319  and  _320
REMARK  131  A    between atoms: _319  and  _322
REMARK  132  A    between atoms: _322  and  _323
REMARK  133  A    between atoms: _326  and  _328
REMARK  134  A    between atoms: _328  and  _329
REMARK  135  A    between atoms: _328  and  _331
REMARK  136  A    between atoms: _331  and  _332
REMARK  137  A    between atoms: _335  and  _337
REMARK  138  A    between atoms: _337  and  _338
REMARK  139  A    between atoms: _337  and  _340
REMARK  140  A    between atoms: _340  and  _341
REMARK  141  A    between atoms: _344  and  _346
REMARK  142  A    between atoms: _346  and  _347
REMARK  143  A    between atoms: _349  and  _351
REMARK  144  A    between atoms: _351  and  _352
REMARK  145  A    between atoms: _355  and  _357
REMARK  146  A    between atoms: _357  and  _358
REMARK  147  A    between atoms: _357  and  _360
REMARK  148  A    between atoms: _360  and  _361
REMARK  149  A    between atoms: _364  and  _366
REMARK  150  A    between atoms: _366  and  _367
REMARK  151  A    between atoms: _366  and  _369
REMARK  152  A    between atoms: _369  and  _370
REMARK  153  A    between atoms: _370  and  _372
REMARK  154  A    between atoms: _373  and  _375
REMARK  155  A    between atoms: _375  and  _376
REMARK  156  A    between atoms: _375  and  _378
REMARK  157  A    between atoms: _378  and  _379
REMARK  158  A    between atoms: _382  and  _384
REMARK  159  A    between atoms: _384  and  _385
REMARK  160  A    between atoms: _384  and  _387
REMARK  161  A    between atoms: _390  and  _392
REMARK  162  A    between atoms: _392  and  _393
REMARK  163  A    between atoms: _392  and  _395
REMARK  164  A    between atoms: _395  and  _396
REMARK  165  A    between atoms: _396  and  _397
REMARK  166  A    between atoms: _397  and  _398
REMARK  167  A    between atoms: _398  and  _399
REMARK  168  A    between atoms: _403  and  _405
REMARK  169  A    between atoms: _405  and  _406
REMARK  170  A    between atoms: _405  and  _408
REMARK  171  A    between atoms: _408  and  _409
REMARK  172  A    between atoms: _409  and  _410
REMARK  173  A    between atoms: _412  and  _414
REMARK  174  A    between atoms: _414  and  _415
REMARK  175  A    between atoms: _414  and  _417
REMARK  176  A    between atoms: _417  and  _418
REMARK  177  A    between atoms: _421  and  _423
REMARK  178  A    between atoms: _423  and  _424
REMARK  179  A    between atoms: _426  and  _428
REMARK  180  A    between atoms: _428  and  _429
REMARK  181  A    between atoms: _431  and  _433
REMARK  182  A    between atoms: _433  and  _434
REMARK  183  A    between atoms: _433  and  _436
REMARK  184  A    between atoms: _436  and  _437
REMARK  185  A    between atoms: _440  and  _442
REMARK  186  A    between atoms: _442  and  _443
REMARK  187  A    between atoms: _445  and  _447
REMARK  188  A    between atoms: _447  and  _448
REMARK  189  A    between atoms: _450  and  _452
REMARK  190  A    between atoms: _452  and  _453
REMARK  191  A    between atoms: _452  and  _455
REMARK  192  A    between atoms: _455  and  _456
REMARK  193  A    between atoms: _459  and  _461
REMARK  194  A    between atoms: _461  and  _462
REMARK  195  A    between atoms: _461  and  _464
REMARK  196  A    between atoms: _464  and  _465
REMARK  197  A    between atoms: _468  and  _470
REMARK  198  A    between atoms: _470  and  _471
REMARK  199  A    between atoms: _470  and  _473
REMARK  200  A    between atoms: _473  and  _474
REMARK  201  A    between atoms: _478  and  _479
REMARK  202  A    between atoms: _484  and  _486
REMARK  203  A    between atoms: _486  and  _487
REMARK  204  A    between atoms: _486  and  _489
REMARK  205  A    between atoms: _492  and  _494
REMARK  206  A    between atoms: _494  and  _495
REMARK  207  A    between atoms: _494  and  _497
REMARK  208  A    between atoms: _497  and  _498
REMARK  209  A    between atoms: _503  and  _505
REMARK  210  A    between atoms: _505  and  _506
REMARK  211  A    between atoms: _505  and  _508
REMARK  212  A    between atoms: _508  and  _509
REMARK  213  A    between atoms: _512  and  _514
REMARK  214  A    between atoms: _514  and  _515
REMARK  215  A    between atoms: _514  and  _517
REMARK  216  A    between atoms: _517  and  _518
REMARK  217  A    between atoms: _521  and  _523
REMARK  218  A    between atoms: _523  and  _524
REMARK  219  A    between atoms: _526  and  _528
REMARK  220  A    between atoms: _528  and  _529
REMARK  221  A    between atoms: _528  and  _531
REMARK  222  A    between atoms: _531  and  _532
REMARK  223  A    between atoms: _532  and  _533
REMARK  224  A    between atoms: _533  and  _534
REMARK  225  A    between atoms: _543  and  _545
REMARK  226  A    between atoms: _545  and  _546
REMARK  227  A    between atoms: _545  and  _548
REMARK  228  A    between atoms: _548  and  _549
REMARK                            x       y       z     vdW  Elec       q    Type
REMARK                         _______ _______ _______ _____ _____    ______ ____
ROOT
ATOM      1  O   HOH     1      -6.142  20.043  13.973  0.00  0.00    +0.000 OA
ENDROOT
TORSDOF 0
REMARK  Name = ../refined-set-2016/4ll3/4ll3_pocket.pdb
REMARK  228 active torsions:
REMARK  status: ('A' for Active; 'I' for Inactive)
REMARK    1  A    between atoms: _1  and  _3
REMARK    2  A    between atoms: _3  and  _4
REMARK    3  A    between atoms: _3  and  _6
REMARK    4  A    between atoms: _6  and  _7
REMARK    5  A    between atoms: _7  and  _8
REMARK    6  A    between atoms: _8  and  _9
REMARK    7  A    between atoms: _18  and  _20
REMARK    8  A    between atoms: _20  and  _21
REMARK    9  A    between atoms: _20  and  _23
REMARK   10  A    between atoms: _23  and  _24
REMARK   11  A    between atoms: _27  and  _29
REMARK   12  A    between atoms: _29  and  _30
REMARK   13  A    between atoms: _29  and  _32
REMARK   14  A    between atoms: _32  and  _33
REMARK   15  A    between atoms: _36  and  _38
REMARK   16  A    between atoms: _38  and  _39
REMARK   17  A    between atoms: _38  and  _41
REMARK   18  A    between atoms: _41  and  _42
REMARK   19  A    between atoms: _45  and  _47
REMARK   20  A    between atoms: _47  and  _48
REMARK   21  A    between atoms: _47  and  _50
REMARK   22  A    between atoms: _50  and  _51
REMARK   23  A    between atoms: _54  and  _56
REMARK   24  A    between atoms: _56  and  _57
REMARK   25  A    between atoms: _59  and  _61
REMARK   26  A    between atoms: _61  and  _62
REMARK   27  A    between atoms: _65  and  _67
REMARK   28  A    between atoms: _67  and  _68
REMARK   29  A    between atoms: _67  and  _70
REMARK   30  A    between atoms: _70  and  _71
REMARK   31  A    between atoms: _74  and  _76
REMARK   32  A    between atoms: _76  and  _77
REMARK   33  A    between atoms: _76  and  _79
REMARK   34  A    between atoms: _79  and  _80
REMARK   35  A    between atoms: _80  and  _82
REMARK   36  A    between atoms: _83  and  _85
REMARK   37  A    between atoms: _85  and  _86
REMARK   38  A    between atoms: _85  and  _88
REMARK   39  A    between atoms: _88  and  _89
REMARK   40  A    between atoms: _92  and  _94
REMARK   41  A    between atoms: _94  and  _95
REMARK   42  A    between atoms: _94  and  _97
REMARK   43  A    between atoms: _100  and  _102
REMARK   44  A    between atoms: _102  and  _103
REMARK   45  A    between atoms: _102  and  _105
REMARK   46  A    between atoms: _105  and  _106
REMARK   47  A    between atoms: _106  and  _107
REMARK   48  A    between atoms: _107  and  _108
REMARK   49  A    between atoms: _108  and  _109
REMARK   50  A    between atoms: _113  and  _115
REMARK   51  A    between atoms: _115  and  _116
REMARK   52  A    between atoms: _115  and  _118
REMARK   53  A    between atoms: _118  and  _119
REMARK   54  A    between atoms: _119  and  _120
REMARK   55  A    between atoms: _122  and  _124
REMARK   56  A    between atoms: _124  and  _125
REMARK   57  A    between atoms: _124  and  _127
REMARK   58  A    between atoms: _127  and  _128
REMARK   59  A    between atoms: _131  and  _133
REMARK   60  A    between atoms: _133  and  _134
REMARK   61  A    between atoms: _136  and  _138
REMARK   62  A    between atoms: _138  and  _139
REMARK   63  A    between atoms: _141  and  _143
REMARK   64  A    between atoms: _143  and  _144
REMARK   65  A    between atoms: _143  and  _146
REMARK   66  A    between atoms: _146  and  _147
REMARK   67  A    between atoms: _150  and  _152
REMARK   68  A    between atoms: _152  and  _153
REMARK   69  A    between atoms: _155  and  _157
REMARK   70  A    between atoms: _157  and  _158
REMARK   71  A    between atoms: _160  and  _162
REMARK   72  A    between atoms: _162  and  _163
REMARK   73  A    between atoms: _162  and  _165
REMARK   74  A    between atoms: _165  and  _166
REMARK   75  A    between atoms: _172  and  _174
REMARK   76  A    between atoms: _174  and  _175
REMARK   77  A    between atoms: _174  and  _177
REMARK   78  A    between atoms: _177  and  _178
REMARK   79  A    between atoms: _181  and  _183
REMARK   80  A    between atoms: _183  and  _184
REMARK   81  A    between atoms: _183  and  _186
REMARK   82  A    between atoms: _189  and  _191
REMARK   83  A    between atoms: _191  and  _192
REMARK   84  A    between atoms: _191  and  _194
REMARK   85  A    between atoms: _194  and  _195
REMARK   86  A    between atoms: _199  and  _200
REMARK   87  A    between atoms: _205  and  _207
REMARK   88  A    between atoms: _207  and  _208
REMARK   89  A    between atoms: _207  and  _210
REMARK   90  A    between atoms: _210  and  _211
REMARK   91  A    between atoms: _215  and  _216
REMARK   92  A    between atoms: _221  and  _223
REMARK   93  A    between atoms: _223  and  _224
REMARK   94  A    between atoms: _223  and  _226
REMARK   95  A    between atoms: _229  and  _231
REMARK   96  A    between atoms: _231  and  _232
REMARK   97  A    between atoms: _231  and  _234
REMARK   98  A    between atoms: _234  and  _235
REMARK   99  A    between atoms: _240  and  _242
REMARK  100  A    between atoms: _242  and  _243
REMARK  101  A    between atoms: _242  and  _245
REMARK  102  A    between atoms: _245  and  _246
REMARK  103  A    between atoms: _249  and  _251
REMARK  104  A    between atoms: _251  and  _252
REMARK  105  A    between atoms: _251  and  _254
REMARK  106  A    between atoms: _254  and  _255
REMARK  107  A    between atoms: _258  and  _260
REMARK  108  A    between atoms: _260  and  _261
REMARK  109  A    between atoms: _263  and  _265
REMARK  110  A    between atoms: _265  and  _266
REMARK  111  A    between atoms: _265  and  _268
REMARK  112  A    between atoms: _268  and  _269
REMARK  113  A    between atoms: _269  and  _270
REMARK  114  A    between atoms: _270  and  _271
REMARK  115  A    between atoms: _280  and  _282
REMARK  116  A    between atoms: _282  and  _283
REMARK  117  A    between atoms: _282  and  _285
REMARK  118  A    between atoms: _285  and  _286
REMARK  119  A    between atoms: _291  and  _293
REMARK  120  A    between atoms: _293  and  _294
REMARK  121  A    between atoms: _293  and  _296
REMARK  122  A    between atoms: _296  and  _297
REMARK  123  A    between atoms: _297  and  _298
REMARK  124  A    between atoms: _298  and  _299
REMARK  125  A    between atoms: _308  and  _310
REMARK  126  A    between atoms: _310  and  _311
REMARK  127  A    between atoms: _310  and  _313
REMARK  128  A    between atoms: _313  and  _314
REMARK  129  A    between atoms: _317  and  _319
REMARK  130  A    between atoms: _319  and  _320
REMARK  131  A    between atoms: _319  and  _322
REMARK  132  A    between atoms: _322  and  _323
REMARK  133  A    between atoms: _326  and  _328
REMARK  134  A    between atoms: _328  and  _329
REMARK  135  A    between atoms: _328  and  _331
REMARK  136  A    between atoms: _331  and  _332
REMARK  137  A    between atoms: _335  and  _337
REMARK  138  A    between atoms: _337  and  _338
REMARK  139  A    between atoms: _337  and  _340
REMARK  140  A    between atoms: _340  and  _341
REMARK  141  A    between atoms: _344  and  _346
REMARK  142  A    between atoms: _346  and  _347
REMARK  143  A    between atoms: _349  and  _351
REMARK  144  A    between atoms: _351  and  _352
REMARK  145  A    between atoms: _355  and  _357
REMARK  146  A    between atoms: _357  and  _358
REMARK  147  A    between atoms: _357  and  _360
REMARK  148  A    between atoms: _360  and  _361
REMARK  149  A    between atoms: _364  and  _366
REMARK  150  A    between atoms: _366  and  _367
REMARK  151  A    between atoms: _366  and  _369
REMARK  152  A    between atoms: _369  and  _370
REMARK  153  A    between atoms: _370  and  _372
REMARK  154  A    between atoms: _373  and  _375
REMARK  155  A    between atoms: _375  and  _376
REMARK  156  A    between atoms: _375  and  _378
REMARK  157  A    between atoms: _378  and  _379
REMARK  158  A    between atoms: _382  and  _384
REMARK  159  A    between atoms: _384  and  _385
REMARK  160  A    between atoms: _384  and  _387
REMARK  161  A    between atoms: _390  and  _392
REMARK  162  A    between atoms: _392  and  _393
REMARK  163  A    between atoms: _392  and  _395
REMARK  164  A    between atoms: _395  and  _396
REMARK  165  A    between atoms: _396  and  _397
REMARK  166  A    between atoms: _397  and  _398
REMARK  167  A    between atoms: _398  and  _399
REMARK  168  A    between atoms: _403  and  _405
REMARK  169  A    between atoms: _405  and  _406
REMARK  170  A    between atoms: _405  and  _408
REMARK  171  A    between atoms: _408  and  _409
REMARK  172  A    between atoms: _409  and  _410
REMARK  173  A    between atoms: _412  and  _414
REMARK  174  A    between atoms: _414  and  _415
REMARK  175  A    between atoms: _414  and  _417
REMARK  176  A    between atoms: _417  and  _418
REMARK  177  A    between atoms: _421  and  _423
REMARK  178  A    between atoms: _423  and  _424
REMARK  179  A    between atoms: _426  and  _428
REMARK  180  A    between atoms: _428  and  _429
REMARK  181  A    between atoms: _431  and  _433
REMARK  182  A    between atoms: _433  and  _434
REMARK  183  A    between atoms: _433  and  _436
REMARK  184  A    between atoms: _436  and  _437
REMARK  185  A    between atoms: _440  and  _442
REMARK  186  A    between atoms: _442  and  _443
REMARK  187  A    between atoms: _445  and  _447
REMARK  188  A    between atoms: _447  and  _448
REMARK  189  A    between atoms: _450  and  _452
REMARK  190  A    between atoms: _452  and  _453
REMARK  191  A    between atoms: _452  and  _455
REMARK  192  A    between atoms: _455  and  _456
REMARK  193  A    between atoms: _459  and  _461
REMARK  194  A    between atoms: _461  and  _462
REMARK  195  A    between atoms: _461  and  _464
REMARK  196  A    between atoms: _464  and  _465
REMARK  197  A    between atoms: _468  and  _470
REMARK  198  A    between atoms: _470  and  _471
REMARK  199  A    between atoms: _470  and  _473
REMARK  200  A    between atoms: _473  and  _474
REMARK  201  A    between atoms: _478  and  _479
REMARK  202  A    between atoms: _484  and  _486
REMARK  203  A    between atoms: _486  and  _487
REMARK  204  A    between atoms: _486  and  _489
REMARK  205  A    between atoms: _492  and  _494
REMARK  206  A    between atoms: _494  and  _495
REMARK  207  A    between atoms: _494  and  _497
REMARK  208  A    between atoms: _497  and  _498
REMARK  209  A    between atoms: _503  and  _505
REMARK  210  A    between atoms: _505  and  _506
REMARK  211  A    between atoms: _505  and  _508
REMARK  212  A    between atoms: _508  and  _509
REMARK  213  A    between atoms: _512  and  _514
REMARK  214  A    between atoms: _514  and  _515
REMARK  215  A    between atoms: _514  and  _517
REMARK  216  A    between atoms: _517  and  _518
REMARK  217  A    between atoms: _521  and  _523
REMARK  218  A    between atoms: _523  and  _524
REMARK  219  A    between atoms: _526  and  _528
REMARK  220  A    between atoms: _528  and  _529
REMARK  221  A    between atoms: _528  and  _531
REMARK  222  A    between atoms: _531  and  _532
REMARK  223  A    between atoms: _532  and  _533
REMARK  224  A    between atoms: _533  and  _534
REMARK  225  A    between atoms: _543  and  _545
REMARK  226  A    between atoms: _545  and  _546
REMARK  227  A    between atoms: _545  and  _548
REMARK  228  A    between atoms: _548  and  _549
REMARK                            x       y       z     vdW  Elec       q    Type
REMARK                         _______ _______ _______ _____ _____    ______ ____
ROOT
ATOM      1  O   HOH     1      -0.463  14.245  23.105  0.00  0.00    +0.000 OA
ENDROOT
TORSDOF 0
REMARK  Name = ../refined-set-2016/4ll3/4ll3_pocket.pdb
REMARK  228 active torsions:
REMARK  status: ('A' for Active; 'I' for Inactive)
REMARK    1  A    between atoms: _1  and  _3
REMARK    2  A    between atoms: _3  and  _4
REMARK    3  A    between atoms: _3  and  _6
REMARK    4  A    between atoms: _6  and  _7
REMARK    5  A    between atoms: _7  and  _8
REMARK    6  A    between atoms: _8  and  _9
REMARK    7  A    between atoms: _18  and  _20
REMARK    8  A    between atoms: _20  and  _21
REMARK    9  A    between atoms: _20  and  _23
REMARK   10  A    between atoms: _23  and  _24
REMARK   11  A    between atoms: _27  and  _29
REMARK   12  A    between atoms: _29  and  _30
REMARK   13  A    between atoms: _29  and  _32
REMARK   14  A    between atoms: _32  and  _33
REMARK   15  A    between atoms: _36  and  _38
REMARK   16  A    between atoms: _38  and  _39
REMARK   17  A    between atoms: _38  and  _41
REMARK   18  A    between atoms: _41  and  _42
REMARK   19  A    between atoms: _45  and  _47
REMARK   20  A    between atoms: _47  and  _48
REMARK   21  A    between atoms: _47  and  _50
REMARK   22  A    between atoms: _50  and  _51
REMARK   23  A    between atoms: _54  and  _56
REMARK   24  A    between atoms: _56  and  _57
REMARK   25  A    between atoms: _59  and  _61
REMARK   26  A    between atoms: _61  and  _62
REMARK   27  A    between atoms: _65  and  _67
REMARK   28  A    between atoms: _67  and  _68
REMARK   29  A    between atoms: _67  and  _70
REMARK   30  A    between atoms: _70  and  _71
REMARK   31  A    between atoms: _74  and  _76
REMARK   32  A    between atoms: _76  and  _77
REMARK   33  A    between atoms: _76  and  _79
REMARK   34  A    between atoms: _79  and  _80
REMARK   35  A    between atoms: _80  and  _82
REMARK   36  A    between atoms: _83  and  _85
REMARK   37  A    between atoms: _85  and  _86
REMARK   38  A    between atoms: _85  and  _88
REMARK   39  A    between atoms: _88  and  _89
REMARK   40  A    between atoms: _92  and  _94
REMARK   41  A    between atoms: _94  and  _95
REMARK   42  A    between atoms: _94  and  _97
REMARK   43  A    between atoms: _100  and  _102
REMARK   44  A    between atoms: _102  and  _103
REMARK   45  A    between atoms: _102  and  _105
REMARK   46  A    between atoms: _105  and  _106
REMARK   47  A    between atoms: _106  and  _107
REMARK   48  A    between atoms: _107  and  _108
REMARK   49  A    between atoms: _108  and  _109
REMARK   50  A    between atoms: _113  and  _115
REMARK   51  A    between atoms: _115  and  _116
REMARK   52  A    between atoms: _115  and  _118
REMARK   53  A    between atoms: _118  and  _119
REMARK   54  A    between atoms: _119  and  _120
REMARK   55  A    between atoms: _122  and  _124
REMARK   56  A    between atoms: _124  and  _125
REMARK   57  A    between atoms: _124  and  _127
REMARK   58  A    between atoms: _127  and  _128
REMARK   59  A    between atoms: _131  and  _133
REMARK   60  A    between atoms: _133  and  _134
REMARK   61  A    between atoms: _136  and  _138
REMARK   62  A    between atoms: _138  and  _139
REMARK   63  A    between atoms: _141  and  _143
REMARK   64  A    between atoms: _143  and  _144
REMARK   65  A    between atoms: _143  and  _146
REMARK   66  A    between atoms: _146  and  _147
REMARK   67  A    between atoms: _150  and  _152
REMARK   68  A    between atoms: _152  and  _153
REMARK   69  A    between atoms: _155  and  _157
REMARK   70  A    between atoms: _157  and  _158
REMARK   71  A    between atoms: _160  and  _162
REMARK   72  A    between atoms: _162  and  _163
REMARK   73  A    between atoms: _162  and  _165
REMARK   74  A    between atoms: _165  and  _166
REMARK   75  A    between atoms: _172  and  _174
REMARK   76  A    between atoms: _174  and  _175
REMARK   77  A    between atoms: _174  and  _177
REMARK   78  A    between atoms: _177  and  _178
REMARK   79  A    between atoms: _181  and  _183
REMARK   80  A    between atoms: _183  and  _184
REMARK   81  A    between atoms: _183  and  _186
REMARK   82  A    between atoms: _189  and  _191
REMARK   83  A    between atoms: _191  and  _192
REMARK   84  A    between atoms: _191  and  _194
REMARK   85  A    between atoms: _194  and  _195
REMARK   86  A    between atoms: _199  and  _200
REMARK   87  A    between atoms: _205  and  _207
REMARK   88  A    between atoms: _207  and  _208
REMARK   89  A    between atoms: _207  and  _210
REMARK   90  A    between atoms: _210  and  _211
REMARK   91  A    between atoms: _215  and  _216
REMARK   92  A    between atoms: _221  and  _223
REMARK   93  A    between atoms: _223  and  _224
REMARK   94  A    between atoms: _223  and  _226
REMARK   95  A    between atoms: _229  and  _231
REMARK   96  A    between atoms: _231  and  _232
REMARK   97  A    between atoms: _231  and  _234
REMARK   98  A    between atoms: _234  and  _235
REMARK   99  A    between atoms: _240  and  _242
REMARK  100  A    between atoms: _242  and  _243
REMARK  101  A    between atoms: _242  and  _245
REMARK  102  A    between atoms: _245  and  _246
REMARK  103  A    between atoms: _249  and  _251
REMARK  104  A    between atoms: _251  and  _252
REMARK  105  A    between atoms: _251  and  _254
REMARK  106  A    between atoms: _254  and  _255
REMARK  107  A    between atoms: _258  and  _260
REMARK  108  A    between atoms: _260  and  _261
REMARK  109  A    between atoms: _263  and  _265
REMARK  110  A    between atoms: _265  and  _266
REMARK  111  A    between atoms: _265  and  _268
REMARK  112  A    between atoms: _268  and  _269
REMARK  113  A    between atoms: _269  and  _270
REMARK  114  A    between atoms: _270  and  _271
REMARK  115  A    between atoms: _280  and  _282
REMARK  116  A    between atoms: _282  and  _283
REMARK  117  A    between atoms: _282  and  _285
REMARK  118  A    between atoms: _285  and  _286
REMARK  119  A    between atoms: _291  and  _293
REMARK  120  A    between atoms: _293  and  _294
REMARK  121  A    between atoms: _293  and  _296
REMARK  122  A    between atoms: _296  and  _297
REMARK  123  A    between atoms: _297  and  _298
REMARK  124  A    between atoms: _298  and  _299
REMARK  125  A    between atoms: _308  and  _310
REMARK  126  A    between atoms: _310  and  _311
REMARK  127  A    between atoms: _310  and  _313
REMARK  128  A    between atoms: _313  and  _314
REMARK  129  A    between atoms: _317  and  _319
REMARK  130  A    between atoms: _319  and  _320
REMARK  131  A    between atoms: _319  and  _322
REMARK  132  A    between atoms: _322  and  _323
REMARK  133  A    between atoms: _326  and  _328
REMARK  134  A    between atoms: _328  and  _329
REMARK  135  A    between atoms: _328  and  _331
REMARK  136  A    between atoms: _331  and  _332
REMARK  137  A    between atoms: _335  and  _337
REMARK  138  A    between atoms: _337  and  _338
REMARK  139  A    between atoms: _337  and  _340
REMARK  140  A    between atoms: _340  and  _341
REMARK  141  A    between atoms: _344  and  _346
REMARK  142  A    between atoms: _346  and  _347
REMARK  143  A    between atoms: _349  and  _351
REMARK  144  A    between atoms: _351  and  _352
REMARK  145  A    between atoms: _355  and  _357
REMARK  146  A    between atoms: _357  and  _358
REMARK  147  A    between atoms: _357  and  _360
REMARK  148  A    between atoms: _360  and  _361
REMARK  149  A    between atoms: _364  and  _366
REMARK  150  A    between atoms: _366  and  _367
REMARK  151  A    between atoms: _366  and  _369
REMARK  152  A    between atoms: _369  and  _370
REMARK  153  A    between atoms: _370  and  _372
REMARK  154  A    between atoms: _373  and  _375
REMARK  155  A    between atoms: _375  and  _376
REMARK  156  A    between atoms: _375  and  _378
REMARK  157  A    between atoms: _378  and  _379
REMARK  158  A    between atoms: _382  and  _384
REMARK  159  A    between atoms: _384  and  _385
REMARK  160  A    between atoms: _384  and  _387
REMARK  161  A    between atoms: _390  and  _392
REMARK  162  A    between atoms: _392  and  _393
REMARK  163  A    between atoms: _392  and  _395
REMARK  164  A    between atoms: _395  and  _396
REMARK  165  A    between atoms: _396  and  _397
REMARK  166  A    between atoms: _397  and  _398
REMARK  167  A    between atoms: _398  and  _399
REMARK  168  A    between atoms: _403  and  _405
REMARK  169  A    between atoms: _405  and  _406
REMARK  170  A    between atoms: _405  and  _408
REMARK  171  A    between atoms: _408  and  _409
REMARK  172  A    between atoms: _409  and  _410
REMARK  173  A    between atoms: _412  and  _414
REMARK  174  A    between atoms: _414  and  _415
REMARK  175  A    between atoms: _414  and  _417
REMARK  176  A    between atoms: _417  and  _418
REMARK  177  A    between atoms: _421  and  _423
REMARK  178  A    between atoms: _423  and  _424
REMARK  179  A    between atoms: _426  and  _428
REMARK  180  A    between atoms: _428  and  _429
REMARK  181  A    between atoms: _431  and  _433
REMARK  182  A    between atoms: _433  and  _434
REMARK  183  A    between atoms: _433  and  _436
REMARK  184  A    between atoms: _436  and  _437
REMARK  185  A    between atoms: _440  and  _442
REMARK  186  A    between atoms: _442  and  _443
REMARK  187  A    between atoms: _445  and  _447
REMARK  188  A    between atoms: _447  and  _448
REMARK  189  A    between atoms: _450  and  _452
REMARK  190  A    between atoms: _452  and  _453
REMARK  191  A    between atoms: _452  and  _455
REMARK  192  A    between atoms: _455  and  _456
REMARK  193  A    between atoms: _459  and  _461
REMARK  194  A    between atoms: _461  and  _462
REMARK  195  A    between atoms: _461  and  _464
REMARK  196  A    between atoms: _464  and  _465
REMARK  197  A    between atoms: _468  and  _470
REMARK  198  A    between atoms: _470  and  _471
REMARK  199  A    between atoms: _470  and  _473
REMARK  200  A    between atoms: _473  and  _474
REMARK  201  A    between atoms: _478  and  _479
REMARK  202  A    between atoms: _484  and  _486
REMARK  203  A    between atoms: _486  and  _487
REMARK  204  A    between atoms: _486  and  _489
REMARK  205  A    between atoms: _492  and  _494
REMARK  206  A    between atoms: _494  and  _495
REMARK  207  A    between atoms: _494  and  _497
REMARK  208  A    between atoms: _497  and  _498
REMARK  209  A    between atoms: _503  and  _505
REMARK  210  A    between atoms: _505  and  _506
REMARK  211  A    between atoms: _505  and  _508
REMARK  212  A    between atoms: _508  and  _509
REMARK  213  A    between atoms: _512  and  _514
REMARK  214  A    between atoms: _514  and  _515
REMARK  215  A    between atoms: _514  and  _517
REMARK  216  A    between atoms: _517  and  _518
REMARK  217  A    between atoms: _521  and  _523
REMARK  218  A    between atoms: _523  and  _524
REMARK  219  A    between atoms: _526  and  _528
REMARK  220  A    between atoms: _528  and  _529
REMARK  221  A    between atoms: _528  and  _531
REMARK  222  A    between atoms: _531  and  _532
REMARK  223  A    between atoms: _532  and  _533
REMARK  224  A    between atoms: _533  and  _534
REMARK  225  A    between atoms: _543  and  _545
REMARK  226  A    between atoms: _545  and  _546
REMARK  227  A    between atoms: _545  and  _548
REMARK  228  A    between atoms: _548  and  _549
REMARK                            x       y       z     vdW  Elec       q    Type
REMARK                         _______ _______ _______ _____ _____    ______ ____
ROOT
ATOM      1  O   HOH     1     -10.043  17.869  12.271  0.00  0.00    +0.000 OA
ENDROOT
TORSDOF 0
REMARK  Name = ../refined-set-2016/4ll3/4ll3_pocket.pdb
REMARK  228 active torsions:
REMARK  status: ('A' for Active; 'I' for Inactive)
REMARK    1  A    between atoms: _1  and  _3
REMARK    2  A    between atoms: _3  and  _4
REMARK    3  A    between atoms: _3  and  _6
REMARK    4  A    between atoms: _6  and  _7
REMARK    5  A    between atoms: _7  and  _8
REMARK    6  A    between atoms: _8  and  _9
REMARK    7  A    between atoms: _18  and  _20
REMARK    8  A    between atoms: _20  and  _21
REMARK    9  A    between atoms: _20  and  _23
REMARK   10  A    between atoms: _23  and  _24
REMARK   11  A    between atoms: _27  and  _29
REMARK   12  A    between atoms: _29  and  _30
REMARK   13  A    between atoms: _29  and  _32
REMARK   14  A    between atoms: _32  and  _33
REMARK   15  A    between atoms: _36  and  _38
REMARK   16  A    between atoms: _38  and  _39
REMARK   17  A    between atoms: _38  and  _41
REMARK   18  A    between atoms: _41  and  _42
REMARK   19  A    between atoms: _45  and  _47
REMARK   20  A    between atoms: _47  and  _48
REMARK   21  A    between atoms: _47  and  _50
REMARK   22  A    between atoms: _50  and  _51
REMARK   23  A    between atoms: _54  and  _56
REMARK   24  A    between atoms: _56  and  _57
REMARK   25  A    between atoms: _59  and  _61
REMARK   26  A    between atoms: _61  and  _62
REMARK   27  A    between atoms: _65  and  _67
REMARK   28  A    between atoms: _67  and  _68
REMARK   29  A    between atoms: _67  and  _70
REMARK   30  A    between atoms: _70  and  _71
REMARK   31  A    between atoms: _74  and  _76
REMARK   32  A    between atoms: _76  and  _77
REMARK   33  A    between atoms: _76  and  _79
REMARK   34  A    between atoms: _79  and  _80
REMARK   35  A    between atoms: _80  and  _82
REMARK   36  A    between atoms: _83  and  _85
REMARK   37  A    between atoms: _85  and  _86
REMARK   38  A    between atoms: _85  and  _88
REMARK   39  A    between atoms: _88  and  _89
REMARK   40  A    between atoms: _92  and  _94
REMARK   41  A    between atoms: _94  and  _95
REMARK   42  A    between atoms: _94  and  _97
REMARK   43  A    between atoms: _100  and  _102
REMARK   44  A    between atoms: _102  and  _103
REMARK   45  A    between atoms: _102  and  _105
REMARK   46  A    between atoms: _105  and  _106
REMARK   47  A    between atoms: _106  and  _107
REMARK   48  A    between atoms: _107  and  _108
REMARK   49  A    between atoms: _108  and  _109
REMARK   50  A    between atoms: _113  and  _115
REMARK   51  A    between atoms: _115  and  _116
REMARK   52  A    between atoms: _115  and  _118
REMARK   53  A    between atoms: _118  and  _119
REMARK   54  A    between atoms: _119  and  _120
REMARK   55  A    between atoms: _122  and  _124
REMARK   56  A    between atoms: _124  and  _125
REMARK   57  A    between atoms: _124  and  _127
REMARK   58  A    between atoms: _127  and  _128
REMARK   59  A    between atoms: _131  and  _133
REMARK   60  A    between atoms: _133  and  _134
REMARK   61  A    between atoms: _136  and  _138
REMARK   62  A    between atoms: _138  and  _139
REMARK   63  A    between atoms: _141  and  _143
REMARK   64  A    between atoms: _143  and  _144
REMARK   65  A    between atoms: _143  and  _146
REMARK   66  A    between atoms: _146  and  _147
REMARK   67  A    between atoms: _150  and  _152
REMARK   68  A    between atoms: _152  and  _153
REMARK   69  A    between atoms: _155  and  _157
REMARK   70  A    between atoms: _157  and  _158
REMARK   71  A    between atoms: _160  and  _162
REMARK   72  A    between atoms: _162  and  _163
REMARK   73  A    between atoms: _162  and  _165
REMARK   74  A    between atoms: _165  and  _166
REMARK   75  A    between atoms: _172  and  _174
REMARK   76  A    between atoms: _174  and  _175
REMARK   77  A    between atoms: _174  and  _177
REMARK   78  A    between atoms: _177  and  _178
REMARK   79  A    between atoms: _181  and  _183
REMARK   80  A    between atoms: _183  and  _184
REMARK   81  A    between atoms: _183  and  _186
REMARK   82  A    between atoms: _189  and  _191
REMARK   83  A    between atoms: _191  and  _192
REMARK   84  A    between atoms: _191  and  _194
REMARK   85  A    between atoms: _194  and  _195
REMARK   86  A    between atoms: _199  and  _200
REMARK   87  A    between atoms: _205  and  _207
REMARK   88  A    between atoms: _207  and  _208
REMARK   89  A    between atoms: _207  and  _210
REMARK   90  A    between atoms: _210  and  _211
REMARK   91  A    between atoms: _215  and  _216
REMARK   92  A    between atoms: _221  and  _223
REMARK   93  A    between atoms: _223  and  _224
REMARK   94  A    between atoms: _223  and  _226
REMARK   95  A    between atoms: _229  and  _231
REMARK   96  A    between atoms: _231  and  _232
REMARK   97  A    between atoms: _231  and  _234
REMARK   98  A    between atoms: _234  and  _235
REMARK   99  A    between atoms: _240  and  _242
REMARK  100  A    between atoms: _242  and  _243
REMARK  101  A    between atoms: _242  and  _245
REMARK  102  A    between atoms: _245  and  _246
REMARK  103  A    between atoms: _249  and  _251
REMARK  104  A    between atoms: _251  and  _252
REMARK  105  A    between atoms: _251  and  _254
REMARK  106  A    between atoms: _254  and  _255
REMARK  107  A    between atoms: _258  and  _260
REMARK  108  A    between atoms: _260  and  _261
REMARK  109  A    between atoms: _263  and  _265
REMARK  110  A    between atoms: _265  and  _266
REMARK  111  A    between atoms: _265  and  _268
REMARK  112  A    between atoms: _268  and  _269
REMARK  113  A    between atoms: _269  and  _270
REMARK  114  A    between atoms: _270  and  _271
REMARK  115  A    between atoms: _280  and  _282
REMARK  116  A    between atoms: _282  and  _283
REMARK  117  A    between atoms: _282  and  _285
REMARK  118  A    between atoms: _285  and  _286
REMARK  119  A    between atoms: _291  and  _293
REMARK  120  A    between atoms: _293  and  _294
REMARK  121  A    between atoms: _293  and  _296
REMARK  122  A    between atoms: _296  and  _297
REMARK  123  A    between atoms: _297  and  _298
REMARK  124  A    between atoms: _298  and  _299
REMARK  125  A    between atoms: _308  and  _310
REMARK  126  A    between atoms: _310  and  _311
REMARK  127  A    between atoms: _310  and  _313
REMARK  128  A    between atoms: _313  and  _314
REMARK  129  A    between atoms: _317  and  _319
REMARK  130  A    between atoms: _319  and  _320
REMARK  131  A    between atoms: _319  and  _322
REMARK  132  A    between atoms: _322  and  _323
REMARK  133  A    between atoms: _326  and  _328
REMARK  134  A    between atoms: _328  and  _329
REMARK  135  A    between atoms: _328  and  _331
REMARK  136  A    between atoms: _331  and  _332
REMARK  137  A    between atoms: _335  and  _337
REMARK  138  A    between atoms: _337  and  _338
REMARK  139  A    between atoms: _337  and  _340
REMARK  140  A    between atoms: _340  and  _341
REMARK  141  A    between atoms: _344  and  _346
REMARK  142  A    between atoms: _346  and  _347
REMARK  143  A    between atoms: _349  and  _351
REMARK  144  A    between atoms: _351  and  _352
REMARK  145  A    between atoms: _355  and  _357
REMARK  146  A    between atoms: _357  and  _358
REMARK  147  A    between atoms: _357  and  _360
REMARK  148  A    between atoms: _360  and  _361
REMARK  149  A    between atoms: _364  and  _366
REMARK  150  A    between atoms: _366  and  _367
REMARK  151  A    between atoms: _366  and  _369
REMARK  152  A    between atoms: _369  and  _370
REMARK  153  A    between atoms: _370  and  _372
REMARK  154  A    between atoms: _373  and  _375
REMARK  155  A    between atoms: _375  and  _376
REMARK  156  A    between atoms: _375  and  _378
REMARK  157  A    between atoms: _378  and  _379
REMARK  158  A    between atoms: _382  and  _384
REMARK  159  A    between atoms: _384  and  _385
REMARK  160  A    between atoms: _384  and  _387
REMARK  161  A    between atoms: _390  and  _392
REMARK  162  A    between atoms: _392  and  _393
REMARK  163  A    between atoms: _392  and  _395
REMARK  164  A    between atoms: _395  and  _396
REMARK  165  A    between atoms: _396  and  _397
REMARK  166  A    between atoms: _397  and  _398
REMARK  167  A    between atoms: _398  and  _399
REMARK  168  A    between atoms: _403  and  _405
REMARK  169  A    between atoms: _405  and  _406
REMARK  170  A    between atoms: _405  and  _408
REMARK  171  A    between atoms: _408  and  _409
REMARK  172  A    between atoms: _409  and  _410
REMARK  173  A    between atoms: _412  and  _414
REMARK  174  A    between atoms: _414  and  _415
REMARK  175  A    between atoms: _414  and  _417
REMARK  176  A    between atoms: _417  and  _418
REMARK  177  A    between atoms: _421  and  _423
REMARK  178  A    between atoms: _423  and  _424
REMARK  179  A    between atoms: _426  and  _428
REMARK  180  A    between atoms: _428  and  _429
REMARK  181  A    between atoms: _431  and  _433
REMARK  182  A    between atoms: _433  and  _434
REMARK  183  A    between atoms: _433  and  _436
REMARK  184  A    between atoms: _436  and  _437
REMARK  185  A    between atoms: _440  and  _442
REMARK  186  A    between atoms: _442  and  _443
REMARK  187  A    between atoms: _445  and  _447
REMARK  188  A    between atoms: _447  and  _448
REMARK  189  A    between atoms: _450  and  _452
REMARK  190  A    between atoms: _452  and  _453
REMARK  191  A    between atoms: _452  and  _455
REMARK  192  A    between atoms: _455  and  _456
REMARK  193  A    between atoms: _459  and  _461
REMARK  194  A    between atoms: _461  and  _462
REMARK  195  A    between atoms: _461  and  _464
REMARK  196  A    between atoms: _464  and  _465
REMARK  197  A    between atoms: _468  and  _470
REMARK  198  A    between atoms: _470  and  _471
REMARK  199  A    between atoms: _470  and  _473
REMARK  200  A    between atoms: _473  and  _474
REMARK  201  A    between atoms: _478  and  _479
REMARK  202  A    between atoms: _484  and  _486
REMARK  203  A    between atoms: _486  and  _487
REMARK  204  A    between atoms: _486  and  _489
REMARK  205  A    between atoms: _492  and  _494
REMARK  206  A    between atoms: _494  and  _495
REMARK  207  A    between atoms: _494  and  _497
REMARK  208  A    between atoms: _497  and  _498
REMARK  209  A    between atoms: _503  and  _505
REMARK  210  A    between atoms: _505  and  _506
REMARK  211  A    between atoms: _505  and  _508
REMARK  212  A    between atoms: _508  and  _509
REMARK  213  A    between atoms: _512  and  _514
REMARK  214  A    between atoms: _514  and  _515
REMARK  215  A    between atoms: _514  and  _517
REMARK  216  A    between atoms: _517  and  _518
REMARK  217  A    between atoms: _521  and  _523
REMARK  218  A    between atoms: _523  and  _524
REMARK  219  A    between atoms: _526  and  _528
REMARK  220  A    between atoms: _528  and  _529
REMARK  221  A    between atoms: _528  and  _531
REMARK  222  A    between atoms: _531  and  _532
REMARK  223  A    between atoms: _532  and  _533
REMARK  224  A    between atoms: _533  and  _534
REMARK  225  A    between atoms: _543  and  _545
REMARK  226  A    between atoms: _545  and  _546
REMARK  227  A    between atoms: _545  and  _548
REMARK  228  A    between atoms: _548  and  _549
REMARK                            x       y       z     vdW  Elec       q    Type
REMARK                         _______ _______ _______ _____ _____    ______ ____
ROOT
ATOM      1  O   HOH     1      -3.388  15.049  18.892  0.00  0.00    +0.000 OA
ENDROOT
TORSDOF 0
REMARK  Name = ../refined-set-2016/4ll3/4ll3_pocket.pdb
REMARK  228 active torsions:
REMARK  status: ('A' for Active; 'I' for Inactive)
REMARK    1  A    between atoms: _1  and  _3
REMARK    2  A    between atoms: _3  and  _4
REMARK    3  A    between atoms: _3  and  _6
REMARK    4  A    between atoms: _6  and  _7
REMARK    5  A    between atoms: _7  and  _8
REMARK    6  A    between atoms: _8  and  _9
REMARK    7  A    between atoms: _18  and  _20
REMARK    8  A    between atoms: _20  and  _21
REMARK    9  A    between atoms: _20  and  _23
REMARK   10  A    between atoms: _23  and  _24
REMARK   11  A    between atoms: _27  and  _29
REMARK   12  A    between atoms: _29  and  _30
REMARK   13  A    between atoms: _29  and  _32
REMARK   14  A    between atoms: _32  and  _33
REMARK   15  A    between atoms: _36  and  _38
REMARK   16  A    between atoms: _38  and  _39
REMARK   17  A    between atoms: _38  and  _41
REMARK   18  A    between atoms: _41  and  _42
REMARK   19  A    between atoms: _45  and  _47
REMARK   20  A    between atoms: _47  and  _48
REMARK   21  A    between atoms: _47  and  _50
REMARK   22  A    between atoms: _50  and  _51
REMARK   23  A    between atoms: _54  and  _56
REMARK   24  A    between atoms: _56  and  _57
REMARK   25  A    between atoms: _59  and  _61
REMARK   26  A    between atoms: _61  and  _62
REMARK   27  A    between atoms: _65  and  _67
REMARK   28  A    between atoms: _67  and  _68
REMARK   29  A    between atoms: _67  and  _70
REMARK   30  A    between atoms: _70  and  _71
REMARK   31  A    between atoms: _74  and  _76
REMARK   32  A    between atoms: _76  and  _77
REMARK   33  A    between atoms: _76  and  _79
REMARK   34  A    between atoms: _79  and  _80
REMARK   35  A    between atoms: _80  and  _82
REMARK   36  A    between atoms: _83  and  _85
REMARK   37  A    between atoms: _85  and  _86
REMARK   38  A    between atoms: _85  and  _88
REMARK   39  A    between atoms: _88  and  _89
REMARK   40  A    between atoms: _92  and  _94
REMARK   41  A    between atoms: _94  and  _95
REMARK   42  A    between atoms: _94  and  _97
REMARK   43  A    between atoms: _100  and  _102
REMARK   44  A    between atoms: _102  and  _103
REMARK   45  A    between atoms: _102  and  _105
REMARK   46  A    between atoms: _105  and  _106
REMARK   47  A    between atoms: _106  and  _107
REMARK   48  A    between atoms: _107  and  _108
REMARK   49  A    between atoms: _108  and  _109
REMARK   50  A    between atoms: _113  and  _115
REMARK   51  A    between atoms: _115  and  _116
REMARK   52  A    between atoms: _115  and  _118
REMARK   53  A    between atoms: _118  and  _119
REMARK   54  A    between atoms: _119  and  _120
REMARK   55  A    between atoms: _122  and  _124
REMARK   56  A    between atoms: _124  and  _125
REMARK   57  A    between atoms: _124  and  _127
REMARK   58  A    between atoms: _127  and  _128
REMARK   59  A    between atoms: _131  and  _133
REMARK   60  A    between atoms: _133  and  _134
REMARK   61  A    between atoms: _136  and  _138
REMARK   62  A    between atoms: _138  and  _139
REMARK   63  A    between atoms: _141  and  _143
REMARK   64  A    between atoms: _143  and  _144
REMARK   65  A    between atoms: _143  and  _146
REMARK   66  A    between atoms: _146  and  _147
REMARK   67  A    between atoms: _150  and  _152
REMARK   68  A    between atoms: _152  and  _153
REMARK   69  A    between atoms: _155  and  _157
REMARK   70  A    between atoms: _157  and  _158
REMARK   71  A    between atoms: _160  and  _162
REMARK   72  A    between atoms: _162  and  _163
REMARK   73  A    between atoms: _162  and  _165
REMARK   74  A    between atoms: _165  and  _166
REMARK   75  A    between atoms: _172  and  _174
REMARK   76  A    between atoms: _174  and  _175
REMARK   77  A    between atoms: _174  and  _177
REMARK   78  A    between atoms: _177  and  _178
REMARK   79  A    between atoms: _181  and  _183
REMARK   80  A    between atoms: _183  and  _184
REMARK   81  A    between atoms: _183  and  _186
REMARK   82  A    between atoms: _189  and  _191
REMARK   83  A    between atoms: _191  and  _192
REMARK   84  A    between atoms: _191  and  _194
REMARK   85  A    between atoms: _194  and  _195
REMARK   86  A    between atoms: _199  and  _200
REMARK   87  A    between atoms: _205  and  _207
REMARK   88  A    between atoms: _207  and  _208
REMARK   89  A    between atoms: _207  and  _210
REMARK   90  A    between atoms: _210  and  _211
REMARK   91  A    between atoms: _215  and  _216
REMARK   92  A    between atoms: _221  and  _223
REMARK   93  A    between atoms: _223  and  _224
REMARK   94  A    between atoms: _223  and  _226
REMARK   95  A    between atoms: _229  and  _231
REMARK   96  A    between atoms: _231  and  _232
REMARK   97  A    between atoms: _231  and  _234
REMARK   98  A    between atoms: _234  and  _235
REMARK   99  A    between atoms: _240  and  _242
REMARK  100  A    between atoms: _242  and  _243
REMARK  101  A    between atoms: _242  and  _245
REMARK  102  A    between atoms: _245  and  _246
REMARK  103  A    between atoms: _249  and  _251
REMARK  104  A    between atoms: _251  and  _252
REMARK  105  A    between atoms: _251  and  _254
REMARK  106  A    between atoms: _254  and  _255
REMARK  107  A    between atoms: _258  and  _260
REMARK  108  A    between atoms: _260  and  _261
REMARK  109  A    between atoms: _263  and  _265
REMARK  110  A    between atoms: _265  and  _266
REMARK  111  A    between atoms: _265  and  _268
REMARK  112  A    between atoms: _268  and  _269
REMARK  113  A    between atoms: _269  and  _270
REMARK  114  A    between atoms: _270  and  _271
REMARK  115  A    between atoms: _280  and  _282
REMARK  116  A    between atoms: _282  and  _283
REMARK  117  A    between atoms: _282  and  _285
REMARK  118  A    between atoms: _285  and  _286
REMARK  119  A    between atoms: _291  and  _293
REMARK  120  A    between atoms: _293  and  _294
REMARK  121  A    between atoms: _293  and  _296
REMARK  122  A    between atoms: _296  and  _297
REMARK  123  A    between atoms: _297  and  _298
REMARK  124  A    between atoms: _298  and  _299
REMARK  125  A    between atoms: _308  and  _310
REMARK  126  A    between atoms: _310  and  _311
REMARK  127  A    between atoms: _310  and  _313
REMARK  128  A    between atoms: _313  and  _314
REMARK  129  A    between atoms: _317  and  _319
REMARK  130  A    between atoms: _319  and  _320
REMARK  131  A    between atoms: _319  and  _322
REMARK  132  A    between atoms: _322  and  _323
REMARK  133  A    between atoms: _326  and  _328
REMARK  134  A    between atoms: _328  and  _329
REMARK  135  A    between atoms: _328  and  _331
REMARK  136  A    between atoms: _331  and  _332
REMARK  137  A    between atoms: _335  and  _337
REMARK  138  A    between atoms: _337  and  _338
REMARK  139  A    between atoms: _337  and  _340
REMARK  140  A    between atoms: _340  and  _341
REMARK  141  A    between atoms: _344  and  _346
REMARK  142  A    between atoms: _346  and  _347
REMARK  143  A    between atoms: _349  and  _351
REMARK  144  A    between atoms: _351  and  _352
REMARK  145  A    between atoms: _355  and  _357
REMARK  146  A    between atoms: _357  and  _358
REMARK  147  A    between atoms: _357  and  _360
REMARK  148  A    between atoms: _360  and  _361
REMARK  149  A    between atoms: _364  and  _366
REMARK  150  A    between atoms: _366  and  _367
REMARK  151  A    between atoms: _366  and  _369
REMARK  152  A    between atoms: _369  and  _370
REMARK  153  A    between atoms: _370  and  _372
REMARK  154  A    between atoms: _373  and  _375
REMARK  155  A    between atoms: _375  and  _376
REMARK  156  A    between atoms: _375  and  _378
REMARK  157  A    between atoms: _378  and  _379
REMARK  158  A    between atoms: _382  and  _384
REMARK  159  A    between atoms: _384  and  _385
REMARK  160  A    between atoms: _384  and  _387
REMARK  161  A    between atoms: _390  and  _392
REMARK  162  A    between atoms: _392  and  _393
REMARK  163  A    between atoms: _392  and  _395
REMARK  164  A    between atoms: _395  and  _396
REMARK  165  A    between atoms: _396  and  _397
REMARK  166  A    between atoms: _397  and  _398
REMARK  167  A    between atoms: _398  and  _399
REMARK  168  A    between atoms: _403  and  _405
REMARK  169  A    between atoms: _405  and  _406
REMARK  170  A    between atoms: _405  and  _408
REMARK  171  A    between atoms: _408  and  _409
REMARK  172  A    between atoms: _409  and  _410
REMARK  173  A    between atoms: _412  and  _414
REMARK  174  A    between atoms: _414  and  _415
REMARK  175  A    between atoms: _414  and  _417
REMARK  176  A    between atoms: _417  and  _418
REMARK  177  A    between atoms: _421  and  _423
REMARK  178  A    between atoms: _423  and  _424
REMARK  179  A    between atoms: _426  and  _428
REMARK  180  A    between atoms: _428  and  _429
REMARK  181  A    between atoms: _431  and  _433
REMARK  182  A    between atoms: _433  and  _434
REMARK  183  A    between atoms: _433  and  _436
REMARK  184  A    between atoms: _436  and  _437
REMARK  185  A    between atoms: _440  and  _442
REMARK  186  A    between atoms: _442  and  _443
REMARK  187  A    between atoms: _445  and  _447
REMARK  188  A    between atoms: _447  and  _448
REMARK  189  A    between atoms: _450  and  _452
REMARK  190  A    between atoms: _452  and  _453
REMARK  191  A    between atoms: _452  and  _455
REMARK  192  A    between atoms: _455  and  _456
REMARK  193  A    between atoms: _459  and  _461
REMARK  194  A    between atoms: _461  and  _462
REMARK  195  A    between atoms: _461  and  _464
REMARK  196  A    between atoms: _464  and  _465
REMARK  197  A    between atoms: _468  and  _470
REMARK  198  A    between atoms: _470  and  _471
REMARK  199  A    between atoms: _470  and  _473
REMARK  200  A    between atoms: _473  and  _474
REMARK  201  A    between atoms: _478  and  _479
REMARK  202  A    between atoms: _484  and  _486
REMARK  203  A    between atoms: _486  and  _487
REMARK  204  A    between atoms: _486  and  _489
REMARK  205  A    between atoms: _492  and  _494
REMARK  206  A    between atoms: _494  and  _495
REMARK  207  A    between atoms: _494  and  _497
REMARK  208  A    between atoms: _497  and  _498
REMARK  209  A    between atoms: _503  and  _505
REMARK  210  A    between atoms: _505  and  _506
REMARK  211  A    between atoms: _505  and  _508
REMARK  212  A    between atoms: _508  and  _509
REMARK  213  A    between atoms: _512  and  _514
REMARK  214  A    between atoms: _514  and  _515
REMARK  215  A    between atoms: _514  and  _517
REMARK  216  A    between atoms: _517  and  _518
REMARK  217  A    between atoms: _521  and  _523
REMARK  218  A    between atoms: _523  and  _524
REMARK  219  A    between atoms: _526  and  _528
REMARK  220  A    between atoms: _528  and  _529
REMARK  221  A    between atoms: _528  and  _531
REMARK  222  A    between atoms: _531  and  _532
REMARK  223  A    between atoms: _532  and  _533
REMARK  224  A    between atoms: _533  and  _534
REMARK  225  A    between atoms: _543  and  _545
REMARK  226  A    between atoms: _545  and  _546
REMARK  227  A    between atoms: _545  and  _548
REMARK  228  A    between atoms: _548  and  _549
REMARK                            x       y       z     vdW  Elec       q    Type
REMARK                         _______ _______ _______ _____ _____    ______ ____
ROOT
ATOM      1  O   HOH     1     -12.340  16.721  13.597  0.00  0.00    +0.000 OA
ENDROOT
TORSDOF 0
REMARK  Name = ../refined-set-2016/4ll3/4ll3_pocket.pdb
REMARK  228 active torsions:
REMARK  status: ('A' for Active; 'I' for Inactive)
REMARK    1  A    between atoms: _1  and  _3
REMARK    2  A    between atoms: _3  and  _4
REMARK    3  A    between atoms: _3  and  _6
REMARK    4  A    between atoms: _6  and  _7
REMARK    5  A    between atoms: _7  and  _8
REMARK    6  A    between atoms: _8  and  _9
REMARK    7  A    between atoms: _18  and  _20
REMARK    8  A    between atoms: _20  and  _21
REMARK    9  A    between atoms: _20  and  _23
REMARK   10  A    between atoms: _23  and  _24
REMARK   11  A    between atoms: _27  and  _29
REMARK   12  A    between atoms: _29  and  _30
REMARK   13  A    between atoms: _29  and  _32
REMARK   14  A    between atoms: _32  and  _33
REMARK   15  A    between atoms: _36  and  _38
REMARK   16  A    between atoms: _38  and  _39
REMARK   17  A    between atoms: _38  and  _41
REMARK   18  A    between atoms: _41  and  _42
REMARK   19  A    between atoms: _45  and  _47
REMARK   20  A    between atoms: _47  and  _48
REMARK   21  A    between atoms: _47  and  _50
REMARK   22  A    between atoms: _50  and  _51
REMARK   23  A    between atoms: _54  and  _56
REMARK   24  A    between atoms: _56  and  _57
REMARK   25  A    between atoms: _59  and  _61
REMARK   26  A    between atoms: _61  and  _62
REMARK   27  A    between atoms: _65  and  _67
REMARK   28  A    between atoms: _67  and  _68
REMARK   29  A    between atoms: _67  and  _70
REMARK   30  A    between atoms: _70  and  _71
REMARK   31  A    between atoms: _74  and  _76
REMARK   32  A    between atoms: _76  and  _77
REMARK   33  A    between atoms: _76  and  _79
REMARK   34  A    between atoms: _79  and  _80
REMARK   35  A    between atoms: _80  and  _82
REMARK   36  A    between atoms: _83  and  _85
REMARK   37  A    between atoms: _85  and  _86
REMARK   38  A    between atoms: _85  and  _88
REMARK   39  A    between atoms: _88  and  _89
REMARK   40  A    between atoms: _92  and  _94
REMARK   41  A    between atoms: _94  and  _95
REMARK   42  A    between atoms: _94  and  _97
REMARK   43  A    between atoms: _100  and  _102
REMARK   44  A    between atoms: _102  and  _103
REMARK   45  A    between atoms: _102  and  _105
REMARK   46  A    between atoms: _105  and  _106
REMARK   47  A    between atoms: _106  and  _107
REMARK   48  A    between atoms: _107  and  _108
REMARK   49  A    between atoms: _108  and  _109
REMARK   50  A    between atoms: _113  and  _115
REMARK   51  A    between atoms: _115  and  _116
REMARK   52  A    between atoms: _115  and  _118
REMARK   53  A    between atoms: _118  and  _119
REMARK   54  A    between atoms: _119  and  _120
REMARK   55  A    between atoms: _122  and  _124
REMARK   56  A    between atoms: _124  and  _125
REMARK   57  A    between atoms: _124  and  _127
REMARK   58  A    between atoms: _127  and  _128
REMARK   59  A    between atoms: _131  and  _133
REMARK   60  A    between atoms: _133  and  _134
REMARK   61  A    between atoms: _136  and  _138
REMARK   62  A    between atoms: _138  and  _139
REMARK   63  A    between atoms: _141  and  _143
REMARK   64  A    between atoms: _143  and  _144
REMARK   65  A    between atoms: _143  and  _146
REMARK   66  A    between atoms: _146  and  _147
REMARK   67  A    between atoms: _150  and  _152
REMARK   68  A    between atoms: _152  and  _153
REMARK   69  A    between atoms: _155  and  _157
REMARK   70  A    between atoms: _157  and  _158
REMARK   71  A    between atoms: _160  and  _162
REMARK   72  A    between atoms: _162  and  _163
REMARK   73  A    between atoms: _162  and  _165
REMARK   74  A    between atoms: _165  and  _166
REMARK   75  A    between atoms: _172  and  _174
REMARK   76  A    between atoms: _174  and  _175
REMARK   77  A    between atoms: _174  and  _177
REMARK   78  A    between atoms: _177  and  _178
REMARK   79  A    between atoms: _181  and  _183
REMARK   80  A    between atoms: _183  and  _184
REMARK   81  A    between atoms: _183  and  _186
REMARK   82  A    between atoms: _189  and  _191
REMARK   83  A    between atoms: _191  and  _192
REMARK   84  A    between atoms: _191  and  _194
REMARK   85  A    between atoms: _194  and  _195
REMARK   86  A    between atoms: _199  and  _200
REMARK   87  A    between atoms: _205  and  _207
REMARK   88  A    between atoms: _207  and  _208
REMARK   89  A    between atoms: _207  and  _210
REMARK   90  A    between atoms: _210  and  _211
REMARK   91  A    between atoms: _215  and  _216
REMARK   92  A    between atoms: _221  and  _223
REMARK   93  A    between atoms: _223  and  _224
REMARK   94  A    between atoms: _223  and  _226
REMARK   95  A    between atoms: _229  and  _231
REMARK   96  A    between atoms: _231  and  _232
REMARK   97  A    between atoms: _231  and  _234
REMARK   98  A    between atoms: _234  and  _235
REMARK   99  A    between atoms: _240  and  _242
REMARK  100  A    between atoms: _242  and  _243
REMARK  101  A    between atoms: _242  and  _245
REMARK  102  A    between atoms: _245  and  _246
REMARK  103  A    between atoms: _249  and  _251
REMARK  104  A    between atoms: _251  and  _252
REMARK  105  A    between atoms: _251  and  _254
REMARK  106  A    between atoms: _254  and  _255
REMARK  107  A    between atoms: _258  and  _260
REMARK  108  A    between atoms: _260  and  _261
REMARK  109  A    between atoms: _263  and  _265
REMARK  110  A    between atoms: _265  and  _266
REMARK  111  A    between atoms: _265  and  _268
REMARK  112  A    between atoms: _268  and  _269
REMARK  113  A    between atoms: _269  and  _270
REMARK  114  A    between atoms: _270  and  _271
REMARK  115  A    between atoms: _280  and  _282
REMARK  116  A    between atoms: _282  and  _283
REMARK  117  A    between atoms: _282  and  _285
REMARK  118  A    between atoms: _285  and  _286
REMARK  119  A    between atoms: _291  and  _293
REMARK  120  A    between atoms: _293  and  _294
REMARK  121  A    between atoms: _293  and  _296
REMARK  122  A    between atoms: _296  and  _297
REMARK  123  A    between atoms: _297  and  _298
REMARK  124  A    between atoms: _298  and  _299
REMARK  125  A    between atoms: _308  and  _310
REMARK  126  A    between atoms: _310  and  _311
REMARK  127  A    between atoms: _310  and  _313
REMARK  128  A    between atoms: _313  and  _314
REMARK  129  A    between atoms: _317  and  _319
REMARK  130  A    between atoms: _319  and  _320
REMARK  131  A    between atoms: _319  and  _322
REMARK  132  A    between atoms: _322  and  _323
REMARK  133  A    between atoms: _326  and  _328
REMARK  134  A    between atoms: _328  and  _329
REMARK  135  A    between atoms: _328  and  _331
REMARK  136  A    between atoms: _331  and  _332
REMARK  137  A    between atoms: _335  and  _337
REMARK  138  A    between atoms: _337  and  _338
REMARK  139  A    between atoms: _337  and  _340
REMARK  140  A    between atoms: _340  and  _341
REMARK  141  A    between atoms: _344  and  _346
REMARK  142  A    between atoms: _346  and  _347
REMARK  143  A    between atoms: _349  and  _351
REMARK  144  A    between atoms: _351  and  _352
REMARK  145  A    between atoms: _355  and  _357
REMARK  146  A    between atoms: _357  and  _358
REMARK  147  A    between atoms: _357  and  _360
REMARK  148  A    between atoms: _360  and  _361
REMARK  149  A    between atoms: _364  and  _366
REMARK  150  A    between atoms: _366  and  _367
REMARK  151  A    between atoms: _366  and  _369
REMARK  152  A    between atoms: _369  and  _370
REMARK  153  A    between atoms: _370  and  _372
REMARK  154  A    between atoms: _373  and  _375
REMARK  155  A    between atoms: _375  and  _376
REMARK  156  A    between atoms: _375  and  _378
REMARK  157  A    between atoms: _378  and  _379
REMARK  158  A    between atoms: _382  and  _384
REMARK  159  A    between atoms: _384  and  _385
REMARK  160  A    between atoms: _384  and  _387
REMARK  161  A    between atoms: _390  and  _392
REMARK  162  A    between atoms: _392  and  _393
REMARK  163  A    between atoms: _392  and  _395
REMARK  164  A    between atoms: _395  and  _396
REMARK  165  A    between atoms: _396  and  _397
REMARK  166  A    between atoms: _397  and  _398
REMARK  167  A    between atoms: _398  and  _399
REMARK  168  A    between atoms: _403  and  _405
REMARK  169  A    between atoms: _405  and  _406
REMARK  170  A    between atoms: _405  and  _408
REMARK  171  A    between atoms: _408  and  _409
REMARK  172  A    between atoms: _409  and  _410
REMARK  173  A    between atoms: _412  and  _414
REMARK  174  A    between atoms: _414  and  _415
REMARK  175  A    between atoms: _414  and  _417
REMARK  176  A    between atoms: _417  and  _418
REMARK  177  A    between atoms: _421  and  _423
REMARK  178  A    between atoms: _423  and  _424
REMARK  179  A    between atoms: _426  and  _428
REMARK  180  A    between atoms: _428  and  _429
REMARK  181  A    between atoms: _431  and  _433
REMARK  182  A    between atoms: _433  and  _434
REMARK  183  A    between atoms: _433  and  _436
REMARK  184  A    between atoms: _436  and  _437
REMARK  185  A    between atoms: _440  and  _442
REMARK  186  A    between atoms: _442  and  _443
REMARK  187  A    between atoms: _445  and  _447
REMARK  188  A    between atoms: _447  and  _448
REMARK  189  A    between atoms: _450  and  _452
REMARK  190  A    between atoms: _452  and  _453
REMARK  191  A    between atoms: _452  and  _455
REMARK  192  A    between atoms: _455  and  _456
REMARK  193  A    between atoms: _459  and  _461
REMARK  194  A    between atoms: _461  and  _462
REMARK  195  A    between atoms: _461  and  _464
REMARK  196  A    between atoms: _464  and  _465
REMARK  197  A    between atoms: _468  and  _470
REMARK  198  A    between atoms: _470  and  _471
REMARK  199  A    between atoms: _470  and  _473
REMARK  200  A    between atoms: _473  and  _474
REMARK  201  A    between atoms: _478  and  _479
REMARK  202  A    between atoms: _484  and  _486
REMARK  203  A    between atoms: _486  and  _487
REMARK  204  A    between atoms: _486  and  _489
REMARK  205  A    between atoms: _492  and  _494
REMARK  206  A    between atoms: _494  and  _495
REMARK  207  A    between atoms: _494  and  _497
REMARK  208  A    between atoms: _497  and  _498
REMARK  209  A    between atoms: _503  and  _505
REMARK  210  A    between atoms: _505  and  _506
REMARK  211  A    between atoms: _505  and  _508
REMARK  212  A    between atoms: _508  and  _509
REMARK  213  A    between atoms: _512  and  _514
REMARK  214  A    between atoms: _514  and  _515
REMARK  215  A    between atoms: _514  and  _517
REMARK  216  A    between atoms: _517  and  _518
REMARK  217  A    between atoms: _521  and  _523
REMARK  218  A    between atoms: _523  and  _524
REMARK  219  A    between atoms: _526  and  _528
REMARK  220  A    between atoms: _528  and  _529
REMARK  221  A    between atoms: _528  and  _531
REMARK  222  A    between atoms: _531  and  _532
REMARK  223  A    between atoms: _532  and  _533
REMARK  224  A    between atoms: _533  and  _534
REMARK  225  A    between atoms: _543  and  _545
REMARK  226  A    between atoms: _545  and  _546
REMARK  227  A    between atoms: _545  and  _548
REMARK  228  A    between atoms: _548  and  _549
REMARK                            x       y       z     vdW  Elec       q    Type
REMARK                         _______ _______ _______ _____ _____    ______ ____
ROOT
ATOM      1  O   HOH     1      -6.374  22.477  15.007  0.00  0.00    +0.000 OA
ENDROOT
TORSDOF 0
REMARK  Name = ../refined-set-2016/4ll3/4ll3_pocket.pdb
REMARK  228 active torsions:
REMARK  status: ('A' for Active; 'I' for Inactive)
REMARK    1  A    between atoms: _1  and  _3
REMARK    2  A    between atoms: _3  and  _4
REMARK    3  A    between atoms: _3  and  _6
REMARK    4  A    between atoms: _6  and  _7
REMARK    5  A    between atoms: _7  and  _8
REMARK    6  A    between atoms: _8  and  _9
REMARK    7  A    between atoms: _18  and  _20
REMARK    8  A    between atoms: _20  and  _21
REMARK    9  A    between atoms: _20  and  _23
REMARK   10  A    between atoms: _23  and  _24
REMARK   11  A    between atoms: _27  and  _29
REMARK   12  A    between atoms: _29  and  _30
REMARK   13  A    between atoms: _29  and  _32
REMARK   14  A    between atoms: _32  and  _33
REMARK   15  A    between atoms: _36  and  _38
REMARK   16  A    between atoms: _38  and  _39
REMARK   17  A    between atoms: _38  and  _41
REMARK   18  A    between atoms: _41  and  _42
REMARK   19  A    between atoms: _45  and  _47
REMARK   20  A    between atoms: _47  and  _48
REMARK   21  A    between atoms: _47  and  _50
REMARK   22  A    between atoms: _50  and  _51
REMARK   23  A    between atoms: _54  and  _56
REMARK   24  A    between atoms: _56  and  _57
REMARK   25  A    between atoms: _59  and  _61
REMARK   26  A    between atoms: _61  and  _62
REMARK   27  A    between atoms: _65  and  _67
REMARK   28  A    between atoms: _67  and  _68
REMARK   29  A    between atoms: _67  and  _70
REMARK   30  A    between atoms: _70  and  _71
REMARK   31  A    between atoms: _74  and  _76
REMARK   32  A    between atoms: _76  and  _77
REMARK   33  A    between atoms: _76  and  _79
REMARK   34  A    between atoms: _79  and  _80
REMARK   35  A    between atoms: _80  and  _82
REMARK   36  A    between atoms: _83  and  _85
REMARK   37  A    between atoms: _85  and  _86
REMARK   38  A    between atoms: _85  and  _88
REMARK   39  A    between atoms: _88  and  _89
REMARK   40  A    between atoms: _92  and  _94
REMARK   41  A    between atoms: _94  and  _95
REMARK   42  A    between atoms: _94  and  _97
REMARK   43  A    between atoms: _100  and  _102
REMARK   44  A    between atoms: _102  and  _103
REMARK   45  A    between atoms: _102  and  _105
REMARK   46  A    between atoms: _105  and  _106
REMARK   47  A    between atoms: _106  and  _107
REMARK   48  A    between atoms: _107  and  _108
REMARK   49  A    between atoms: _108  and  _109
REMARK   50  A    between atoms: _113  and  _115
REMARK   51  A    between atoms: _115  and  _116
REMARK   52  A    between atoms: _115  and  _118
REMARK   53  A    between atoms: _118  and  _119
REMARK   54  A    between atoms: _119  and  _120
REMARK   55  A    between atoms: _122  and  _124
REMARK   56  A    between atoms: _124  and  _125
REMARK   57  A    between atoms: _124  and  _127
REMARK   58  A    between atoms: _127  and  _128
REMARK   59  A    between atoms: _131  and  _133
REMARK   60  A    between atoms: _133  and  _134
REMARK   61  A    between atoms: _136  and  _138
REMARK   62  A    between atoms: _138  and  _139
REMARK   63  A    between atoms: _141  and  _143
REMARK   64  A    between atoms: _143  and  _144
REMARK   65  A    between atoms: _143  and  _146
REMARK   66  A    between atoms: _146  and  _147
REMARK   67  A    between atoms: _150  and  _152
REMARK   68  A    between atoms: _152  and  _153
REMARK   69  A    between atoms: _155  and  _157
REMARK   70  A    between atoms: _157  and  _158
REMARK   71  A    between atoms: _160  and  _162
REMARK   72  A    between atoms: _162  and  _163
REMARK   73  A    between atoms: _162  and  _165
REMARK   74  A    between atoms: _165  and  _166
REMARK   75  A    between atoms: _172  and  _174
REMARK   76  A    between atoms: _174  and  _175
REMARK   77  A    between atoms: _174  and  _177
REMARK   78  A    between atoms: _177  and  _178
REMARK   79  A    between atoms: _181  and  _183
REMARK   80  A    between atoms: _183  and  _184
REMARK   81  A    between atoms: _183  and  _186
REMARK   82  A    between atoms: _189  and  _191
REMARK   83  A    between atoms: _191  and  _192
REMARK   84  A    between atoms: _191  and  _194
REMARK   85  A    between atoms: _194  and  _195
REMARK   86  A    between atoms: _199  and  _200
REMARK   87  A    between atoms: _205  and  _207
REMARK   88  A    between atoms: _207  and  _208
REMARK   89  A    between atoms: _207  and  _210
REMARK   90  A    between atoms: _210  and  _211
REMARK   91  A    between atoms: _215  and  _216
REMARK   92  A    between atoms: _221  and  _223
REMARK   93  A    between atoms: _223  and  _224
REMARK   94  A    between atoms: _223  and  _226
REMARK   95  A    between atoms: _229  and  _231
REMARK   96  A    between atoms: _231  and  _232
REMARK   97  A    between atoms: _231  and  _234
REMARK   98  A    between atoms: _234  and  _235
REMARK   99  A    between atoms: _240  and  _242
REMARK  100  A    between atoms: _242  and  _243
REMARK  101  A    between atoms: _242  and  _245
REMARK  102  A    between atoms: _245  and  _246
REMARK  103  A    between atoms: _249  and  _251
REMARK  104  A    between atoms: _251  and  _252
REMARK  105  A    between atoms: _251  and  _254
REMARK  106  A    between atoms: _254  and  _255
REMARK  107  A    between atoms: _258  and  _260
REMARK  108  A    between atoms: _260  and  _261
REMARK  109  A    between atoms: _263  and  _265
REMARK  110  A    between atoms: _265  and  _266
REMARK  111  A    between atoms: _265  and  _268
REMARK  112  A    between atoms: _268  and  _269
REMARK  113  A    between atoms: _269  and  _270
REMARK  114  A    between atoms: _270  and  _271
REMARK  115  A    between atoms: _280  and  _282
REMARK  116  A    between atoms: _282  and  _283
REMARK  117  A    between atoms: _282  and  _285
REMARK  118  A    between atoms: _285  and  _286
REMARK  119  A    between atoms: _291  and  _293
REMARK  120  A    between atoms: _293  and  _294
REMARK  121  A    between atoms: _293  and  _296
REMARK  122  A    between atoms: _296  and  _297
REMARK  123  A    between atoms: _297  and  _298
REMARK  124  A    between atoms: _298  and  _299
REMARK  125  A    between atoms: _308  and  _310
REMARK  126  A    between atoms: _310  and  _311
REMARK  127  A    between atoms: _310  and  _313
REMARK  128  A    between atoms: _313  and  _314
REMARK  129  A    between atoms: _317  and  _319
REMARK  130  A    between atoms: _319  and  _320
REMARK  131  A    between atoms: _319  and  _322
REMARK  132  A    between atoms: _322  and  _323
REMARK  133  A    between atoms: _326  and  _328
REMARK  134  A    between atoms: _328  and  _329
REMARK  135  A    between atoms: _328  and  _331
REMARK  136  A    between atoms: _331  and  _332
REMARK  137  A    between atoms: _335  and  _337
REMARK  138  A    between atoms: _337  and  _338
REMARK  139  A    between atoms: _337  and  _340
REMARK  140  A    between atoms: _340  and  _341
REMARK  141  A    between atoms: _344  and  _346
REMARK  142  A    between atoms: _346  and  _347
REMARK  143  A    between atoms: _349  and  _351
REMARK  144  A    between atoms: _351  and  _352
REMARK  145  A    between atoms: _355  and  _357
REMARK  146  A    between atoms: _357  and  _358
REMARK  147  A    between atoms: _357  and  _360
REMARK  148  A    between atoms: _360  and  _361
REMARK  149  A    between atoms: _364  and  _366
REMARK  150  A    between atoms: _366  and  _367
REMARK  151  A    between atoms: _366  and  _369
REMARK  152  A    between atoms: _369  and  _370
REMARK  153  A    between atoms: _370  and  _372
REMARK  154  A    between atoms: _373  and  _375
REMARK  155  A    between atoms: _375  and  _376
REMARK  156  A    between atoms: _375  and  _378
REMARK  157  A    between atoms: _378  and  _379
REMARK  158  A    between atoms: _382  and  _384
REMARK  159  A    between atoms: _384  and  _385
REMARK  160  A    between atoms: _384  and  _387
REMARK  161  A    between atoms: _390  and  _392
REMARK  162  A    between atoms: _392  and  _393
REMARK  163  A    between atoms: _392  and  _395
REMARK  164  A    between atoms: _395  and  _396
REMARK  165  A    between atoms: _396  and  _397
REMARK  166  A    between atoms: _397  and  _398
REMARK  167  A    between atoms: _398  and  _399
REMARK  168  A    between atoms: _403  and  _405
REMARK  169  A    between atoms: _405  and  _406
REMARK  170  A    between atoms: _405  and  _408
REMARK  171  A    between atoms: _408  and  _409
REMARK  172  A    between atoms: _409  and  _410
REMARK  173  A    between atoms: _412  and  _414
REMARK  174  A    between atoms: _414  and  _415
REMARK  175  A    between atoms: _414  and  _417
REMARK  176  A    between atoms: _417  and  _418
REMARK  177  A    between atoms: _421  and  _423
REMARK  178  A    between atoms: _423  and  _424
REMARK  179  A    between atoms: _426  and  _428
REMARK  180  A    between atoms: _428  and  _429
REMARK  181  A    between atoms: _431  and  _433
REMARK  182  A    between atoms: _433  and  _434
REMARK  183  A    between atoms: _433  and  _436
REMARK  184  A    between atoms: _436  and  _437
REMARK  185  A    between atoms: _440  and  _442
REMARK  186  A    between atoms: _442  and  _443
REMARK  187  A    between atoms: _445  and  _447
REMARK  188  A    between atoms: _447  and  _448
REMARK  189  A    between atoms: _450  and  _452
REMARK  190  A    between atoms: _452  and  _453
REMARK  191  A    between atoms: _452  and  _455
REMARK  192  A    between atoms: _455  and  _456
REMARK  193  A    between atoms: _459  and  _461
REMARK  194  A    between atoms: _461  and  _462
REMARK  195  A    between atoms: _461  and  _464
REMARK  196  A    between atoms: _464  and  _465
REMARK  197  A    between atoms: _468  and  _470
REMARK  198  A    between atoms: _470  and  _471
REMARK  199  A    between atoms: _470  and  _473
REMARK  200  A    between atoms: _473  and  _474
REMARK  201  A    between atoms: _478  and  _479
REMARK  202  A    between atoms: _484  and  _486
REMARK  203  A    between atoms: _486  and  _487
REMARK  204  A    between atoms: _486  and  _489
REMARK  205  A    between atoms: _492  and  _494
REMARK  206  A    between atoms: _494  and  _495
REMARK  207  A    between atoms: _494  and  _497
REMARK  208  A    between atoms: _497  and  _498
REMARK  209  A    between atoms: _503  and  _505
REMARK  210  A    between atoms: _505  and  _506
REMARK  211  A    between atoms: _505  and  _508
REMARK  212  A    between atoms: _508  and  _509
REMARK  213  A    between atoms: _512  and  _514
REMARK  214  A    between atoms: _514  and  _515
REMARK  215  A    between atoms: _514  and  _517
REMARK  216  A    between atoms: _517  and  _518
REMARK  217  A    between atoms: _521  and  _523
REMARK  218  A    between atoms: _523  and  _524
REMARK  219  A    between atoms: _526  and  _528
REMARK  220  A    between atoms: _528  and  _529
REMARK  221  A    between atoms: _528  and  _531
REMARK  222  A    between atoms: _531  and  _532
REMARK  223  A    between atoms: _532  and  _533
REMARK  224  A    between atoms: _533  and  _534
REMARK  225  A    between atoms: _543  and  _545
REMARK  226  A    between atoms: _545  and  _546
REMARK  227  A    between atoms: _545  and  _548
REMARK  228  A    between atoms: _548  and  _549
REMARK                            x       y       z     vdW  Elec       q    Type
REMARK                         _______ _______ _______ _____ _____    ______ ____
ROOT
ATOM      1  O   HOH     1      -6.489  19.027  21.266  0.00  0.00    +0.000 OA
ENDROOT
TORSDOF 0
REMARK  Name = ../refined-set-2016/4ll3/4ll3_pocket.pdb
REMARK  228 active torsions:
REMARK  status: ('A' for Active; 'I' for Inactive)
REMARK    1  A    between atoms: _1  and  _3
REMARK    2  A    between atoms: _3  and  _4
REMARK    3  A    between atoms: _3  and  _6
REMARK    4  A    between atoms: _6  and  _7
REMARK    5  A    between atoms: _7  and  _8
REMARK    6  A    between atoms: _8  and  _9
REMARK    7  A    between atoms: _18  and  _20
REMARK    8  A    between atoms: _20  and  _21
REMARK    9  A    between atoms: _20  and  _23
REMARK   10  A    between atoms: _23  and  _24
REMARK   11  A    between atoms: _27  and  _29
REMARK   12  A    between atoms: _29  and  _30
REMARK   13  A    between atoms: _29  and  _32
REMARK   14  A    between atoms: _32  and  _33
REMARK   15  A    between atoms: _36  and  _38
REMARK   16  A    between atoms: _38  and  _39
REMARK   17  A    between atoms: _38  and  _41
REMARK   18  A    between atoms: _41  and  _42
REMARK   19  A    between atoms: _45  and  _47
REMARK   20  A    between atoms: _47  and  _48
REMARK   21  A    between atoms: _47  and  _50
REMARK   22  A    between atoms: _50  and  _51
REMARK   23  A    between atoms: _54  and  _56
REMARK   24  A    between atoms: _56  and  _57
REMARK   25  A    between atoms: _59  and  _61
REMARK   26  A    between atoms: _61  and  _62
REMARK   27  A    between atoms: _65  and  _67
REMARK   28  A    between atoms: _67  and  _68
REMARK   29  A    between atoms: _67  and  _70
REMARK   30  A    between atoms: _70  and  _71
REMARK   31  A    between atoms: _74  and  _76
REMARK   32  A    between atoms: _76  and  _77
REMARK   33  A    between atoms: _76  and  _79
REMARK   34  A    between atoms: _79  and  _80
REMARK   35  A    between atoms: _80  and  _82
REMARK   36  A    between atoms: _83  and  _85
REMARK   37  A    between atoms: _85  and  _86
REMARK   38  A    between atoms: _85  and  _88
REMARK   39  A    between atoms: _88  and  _89
REMARK   40  A    between atoms: _92  and  _94
REMARK   41  A    between atoms: _94  and  _95
REMARK   42  A    between atoms: _94  and  _97
REMARK   43  A    between atoms: _100  and  _102
REMARK   44  A    between atoms: _102  and  _103
REMARK   45  A    between atoms: _102  and  _105
REMARK   46  A    between atoms: _105  and  _106
REMARK   47  A    between atoms: _106  and  _107
REMARK   48  A    between atoms: _107  and  _108
REMARK   49  A    between atoms: _108  and  _109
REMARK   50  A    between atoms: _113  and  _115
REMARK   51  A    between atoms: _115  and  _116
REMARK   52  A    between atoms: _115  and  _118
REMARK   53  A    between atoms: _118  and  _119
REMARK   54  A    between atoms: _119  and  _120
REMARK   55  A    between atoms: _122  and  _124
REMARK   56  A    between atoms: _124  and  _125
REMARK   57  A    between atoms: _124  and  _127
REMARK   58  A    between atoms: _127  and  _128
REMARK   59  A    between atoms: _131  and  _133
REMARK   60  A    between atoms: _133  and  _134
REMARK   61  A    between atoms: _136  and  _138
REMARK   62  A    between atoms: _138  and  _139
REMARK   63  A    between atoms: _141  and  _143
REMARK   64  A    between atoms: _143  and  _144
REMARK   65  A    between atoms: _143  and  _146
REMARK   66  A    between atoms: _146  and  _147
REMARK   67  A    between atoms: _150  and  _152
REMARK   68  A    between atoms: _152  and  _153
REMARK   69  A    between atoms: _155  and  _157
REMARK   70  A    between atoms: _157  and  _158
REMARK   71  A    between atoms: _160  and  _162
REMARK   72  A    between atoms: _162  and  _163
REMARK   73  A    between atoms: _162  and  _165
REMARK   74  A    between atoms: _165  and  _166
REMARK   75  A    between atoms: _172  and  _174
REMARK   76  A    between atoms: _174  and  _175
REMARK   77  A    between atoms: _174  and  _177
REMARK   78  A    between atoms: _177  and  _178
REMARK   79  A    between atoms: _181  and  _183
REMARK   80  A    between atoms: _183  and  _184
REMARK   81  A    between atoms: _183  and  _186
REMARK   82  A    between atoms: _189  and  _191
REMARK   83  A    between atoms: _191  and  _192
REMARK   84  A    between atoms: _191  and  _194
REMARK   85  A    between atoms: _194  and  _195
REMARK   86  A    between atoms: _199  and  _200
REMARK   87  A    between atoms: _205  and  _207
REMARK   88  A    between atoms: _207  and  _208
REMARK   89  A    between atoms: _207  and  _210
REMARK   90  A    between atoms: _210  and  _211
REMARK   91  A    between atoms: _215  and  _216
REMARK   92  A    between atoms: _221  and  _223
REMARK   93  A    between atoms: _223  and  _224
REMARK   94  A    between atoms: _223  and  _226
REMARK   95  A    between atoms: _229  and  _231
REMARK   96  A    between atoms: _231  and  _232
REMARK   97  A    between atoms: _231  and  _234
REMARK   98  A    between atoms: _234  and  _235
REMARK   99  A    between atoms: _240  and  _242
REMARK  100  A    between atoms: _242  and  _243
REMARK  101  A    between atoms: _242  and  _245
REMARK  102  A    between atoms: _245  and  _246
REMARK  103  A    between atoms: _249  and  _251
REMARK  104  A    between atoms: _251  and  _252
REMARK  105  A    between atoms: _251  and  _254
REMARK  106  A    between atoms: _254  and  _255
REMARK  107  A    between atoms: _258  and  _260
REMARK  108  A    between atoms: _260  and  _261
REMARK  109  A    between atoms: _263  and  _265
REMARK  110  A    between atoms: _265  and  _266
REMARK  111  A    between atoms: _265  and  _268
REMARK  112  A    between atoms: _268  and  _269
REMARK  113  A    between atoms: _269  and  _270
REMARK  114  A    between atoms: _270  and  _271
REMARK  115  A    between atoms: _280  and  _282
REMARK  116  A    between atoms: _282  and  _283
REMARK  117  A    between atoms: _282  and  _285
REMARK  118  A    between atoms: _285  and  _286
REMARK  119  A    between atoms: _291  and  _293
REMARK  120  A    between atoms: _293  and  _294
REMARK  121  A    between atoms: _293  and  _296
REMARK  122  A    between atoms: _296  and  _297
REMARK  123  A    between atoms: _297  and  _298
REMARK  124  A    between atoms: _298  and  _299
REMARK  125  A    between atoms: _308  and  _310
REMARK  126  A    between atoms: _310  and  _311
REMARK  127  A    between atoms: _310  and  _313
REMARK  128  A    between atoms: _313  and  _314
REMARK  129  A    between atoms: _317  and  _319
REMARK  130  A    between atoms: _319  and  _320
REMARK  131  A    between atoms: _319  and  _322
REMARK  132  A    between atoms: _322  and  _323
REMARK  133  A    between atoms: _326  and  _328
REMARK  134  A    between atoms: _328  and  _329
REMARK  135  A    between atoms: _328  and  _331
REMARK  136  A    between atoms: _331  and  _332
REMARK  137  A    between atoms: _335  and  _337
REMARK  138  A    between atoms: _337  and  _338
REMARK  139  A    between atoms: _337  and  _340
REMARK  140  A    between atoms: _340  and  _341
REMARK  141  A    between atoms: _344  and  _346
REMARK  142  A    between atoms: _346  and  _347
REMARK  143  A    between atoms: _349  and  _351
REMARK  144  A    between atoms: _351  and  _352
REMARK  145  A    between atoms: _355  and  _357
REMARK  146  A    between atoms: _357  and  _358
REMARK  147  A    between atoms: _357  and  _360
REMARK  148  A    between atoms: _360  and  _361
REMARK  149  A    between atoms: _364  and  _366
REMARK  150  A    between atoms: _366  and  _367
REMARK  151  A    between atoms: _366  and  _369
REMARK  152  A    between atoms: _369  and  _370
REMARK  153  A    between atoms: _370  and  _372
REMARK  154  A    between atoms: _373  and  _375
REMARK  155  A    between atoms: _375  and  _376
REMARK  156  A    between atoms: _375  and  _378
REMARK  157  A    between atoms: _378  and  _379
REMARK  158  A    between atoms: _382  and  _384
REMARK  159  A    between atoms: _384  and  _385
REMARK  160  A    between atoms: _384  and  _387
REMARK  161  A    between atoms: _390  and  _392
REMARK  162  A    between atoms: _392  and  _393
REMARK  163  A    between atoms: _392  and  _395
REMARK  164  A    between atoms: _395  and  _396
REMARK  165  A    between atoms: _396  and  _397
REMARK  166  A    between atoms: _397  and  _398
REMARK  167  A    between atoms: _398  and  _399
REMARK  168  A    between atoms: _403  and  _405
REMARK  169  A    between atoms: _405  and  _406
REMARK  170  A    between atoms: _405  and  _408
REMARK  171  A    between atoms: _408  and  _409
REMARK  172  A    between atoms: _409  and  _410
REMARK  173  A    between atoms: _412  and  _414
REMARK  174  A    between atoms: _414  and  _415
REMARK  175  A    between atoms: _414  and  _417
REMARK  176  A    between atoms: _417  and  _418
REMARK  177  A    between atoms: _421  and  _423
REMARK  178  A    between atoms: _423  and  _424
REMARK  179  A    between atoms: _426  and  _428
REMARK  180  A    between atoms: _428  and  _429
REMARK  181  A    between atoms: _431  and  _433
REMARK  182  A    between atoms: _433  and  _434
REMARK  183  A    between atoms: _433  and  _436
REMARK  184  A    between atoms: _436  and  _437
REMARK  185  A    between atoms: _440  and  _442
REMARK  186  A    between atoms: _442  and  _443
REMARK  187  A    between atoms: _445  and  _447
REMARK  188  A    between atoms: _447  and  _448
REMARK  189  A    between atoms: _450  and  _452
REMARK  190  A    between atoms: _452  and  _453
REMARK  191  A    between atoms: _452  and  _455
REMARK  192  A    between atoms: _455  and  _456
REMARK  193  A    between atoms: _459  and  _461
REMARK  194  A    between atoms: _461  and  _462
REMARK  195  A    between atoms: _461  and  _464
REMARK  196  A    between atoms: _464  and  _465
REMARK  197  A    between atoms: _468  and  _470
REMARK  198  A    between atoms: _470  and  _471
REMARK  199  A    between atoms: _470  and  _473
REMARK  200  A    between atoms: _473  and  _474
REMARK  201  A    between atoms: _478  and  _479
REMARK  202  A    between atoms: _484  and  _486
REMARK  203  A    between atoms: _486  and  _487
REMARK  204  A    between atoms: _486  and  _489
REMARK  205  A    between atoms: _492  and  _494
REMARK  206  A    between atoms: _494  and  _495
REMARK  207  A    between atoms: _494  and  _497
REMARK  208  A    between atoms: _497  and  _498
REMARK  209  A    between atoms: _503  and  _505
REMARK  210  A    between atoms: _505  and  _506
REMARK  211  A    between atoms: _505  and  _508
REMARK  212  A    between atoms: _508  and  _509
REMARK  213  A    between atoms: _512  and  _514
REMARK  214  A    between atoms: _514  and  _515
REMARK  215  A    between atoms: _514  and  _517
REMARK  216  A    between atoms: _517  and  _518
REMARK  217  A    between atoms: _521  and  _523
REMARK  218  A    between atoms: _523  and  _524
REMARK  219  A    between atoms: _526  and  _528
REMARK  220  A    between atoms: _528  and  _529
REMARK  221  A    between atoms: _528  and  _531
REMARK  222  A    between atoms: _531  and  _532
REMARK  223  A    between atoms: _532  and  _533
REMARK  224  A    between atoms: _533  and  _534
REMARK  225  A    between atoms: _543  and  _545
REMARK  226  A    between atoms: _545  and  _546
REMARK  227  A    between atoms: _545  and  _548
REMARK  228  A    between atoms: _548  and  _549
REMARK                            x       y       z     vdW  Elec       q    Type
REMARK                         _______ _______ _______ _____ _____    ______ ____
ROOT
ATOM      1  O   HOH     1     -13.423  15.025  31.959  0.00  0.00    +0.000 OA
ENDROOT
TORSDOF 0
REMARK  Name = ../refined-set-2016/4ll3/4ll3_pocket.pdb
REMARK  228 active torsions:
REMARK  status: ('A' for Active; 'I' for Inactive)
REMARK    1  A    between atoms: _1  and  _3
REMARK    2  A    between atoms: _3  and  _4
REMARK    3  A    between atoms: _3  and  _6
REMARK    4  A    between atoms: _6  and  _7
REMARK    5  A    between atoms: _7  and  _8
REMARK    6  A    between atoms: _8  and  _9
REMARK    7  A    between atoms: _18  and  _20
REMARK    8  A    between atoms: _20  and  _21
REMARK    9  A    between atoms: _20  and  _23
REMARK   10  A    between atoms: _23  and  _24
REMARK   11  A    between atoms: _27  and  _29
REMARK   12  A    between atoms: _29  and  _30
REMARK   13  A    between atoms: _29  and  _32
REMARK   14  A    between atoms: _32  and  _33
REMARK   15  A    between atoms: _36  and  _38
REMARK   16  A    between atoms: _38  and  _39
REMARK   17  A    between atoms: _38  and  _41
REMARK   18  A    between atoms: _41  and  _42
REMARK   19  A    between atoms: _45  and  _47
REMARK   20  A    between atoms: _47  and  _48
REMARK   21  A    between atoms: _47  and  _50
REMARK   22  A    between atoms: _50  and  _51
REMARK   23  A    between atoms: _54  and  _56
REMARK   24  A    between atoms: _56  and  _57
REMARK   25  A    between atoms: _59  and  _61
REMARK   26  A    between atoms: _61  and  _62
REMARK   27  A    between atoms: _65  and  _67
REMARK   28  A    between atoms: _67  and  _68
REMARK   29  A    between atoms: _67  and  _70
REMARK   30  A    between atoms: _70  and  _71
REMARK   31  A    between atoms: _74  and  _76
REMARK   32  A    between atoms: _76  and  _77
REMARK   33  A    between atoms: _76  and  _79
REMARK   34  A    between atoms: _79  and  _80
REMARK   35  A    between atoms: _80  and  _82
REMARK   36  A    between atoms: _83  and  _85
REMARK   37  A    between atoms: _85  and  _86
REMARK   38  A    between atoms: _85  and  _88
REMARK   39  A    between atoms: _88  and  _89
REMARK   40  A    between atoms: _92  and  _94
REMARK   41  A    between atoms: _94  and  _95
REMARK   42  A    between atoms: _94  and  _97
REMARK   43  A    between atoms: _100  and  _102
REMARK   44  A    between atoms: _102  and  _103
REMARK   45  A    between atoms: _102  and  _105
REMARK   46  A    between atoms: _105  and  _106
REMARK   47  A    between atoms: _106  and  _107
REMARK   48  A    between atoms: _107  and  _108
REMARK   49  A    between atoms: _108  and  _109
REMARK   50  A    between atoms: _113  and  _115
REMARK   51  A    between atoms: _115  and  _116
REMARK   52  A    between atoms: _115  and  _118
REMARK   53  A    between atoms: _118  and  _119
REMARK   54  A    between atoms: _119  and  _120
REMARK   55  A    between atoms: _122  and  _124
REMARK   56  A    between atoms: _124  and  _125
REMARK   57  A    between atoms: _124  and  _127
REMARK   58  A    between atoms: _127  and  _128
REMARK   59  A    between atoms: _131  and  _133
REMARK   60  A    between atoms: _133  and  _134
REMARK   61  A    between atoms: _136  and  _138
REMARK   62  A    between atoms: _138  and  _139
REMARK   63  A    between atoms: _141  and  _143
REMARK   64  A    between atoms: _143  and  _144
REMARK   65  A    between atoms: _143  and  _146
REMARK   66  A    between atoms: _146  and  _147
REMARK   67  A    between atoms: _150  and  _152
REMARK   68  A    between atoms: _152  and  _153
REMARK   69  A    between atoms: _155  and  _157
REMARK   70  A    between atoms: _157  and  _158
REMARK   71  A    between atoms: _160  and  _162
REMARK   72  A    between atoms: _162  and  _163
REMARK   73  A    between atoms: _162  and  _165
REMARK   74  A    between atoms: _165  and  _166
REMARK   75  A    between atoms: _172  and  _174
REMARK   76  A    between atoms: _174  and  _175
REMARK   77  A    between atoms: _174  and  _177
REMARK   78  A    between atoms: _177  and  _178
REMARK   79  A    between atoms: _181  and  _183
REMARK   80  A    between atoms: _183  and  _184
REMARK   81  A    between atoms: _183  and  _186
REMARK   82  A    between atoms: _189  and  _191
REMARK   83  A    between atoms: _191  and  _192
REMARK   84  A    between atoms: _191  and  _194
REMARK   85  A    between atoms: _194  and  _195
REMARK   86  A    between atoms: _199  and  _200
REMARK   87  A    between atoms: _205  and  _207
REMARK   88  A    between atoms: _207  and  _208
REMARK   89  A    between atoms: _207  and  _210
REMARK   90  A    between atoms: _210  and  _211
REMARK   91  A    between atoms: _215  and  _216
REMARK   92  A    between atoms: _221  and  _223
REMARK   93  A    between atoms: _223  and  _224
REMARK   94  A    between atoms: _223  and  _226
REMARK   95  A    between atoms: _229  and  _231
REMARK   96  A    between atoms: _231  and  _232
REMARK   97  A    between atoms: _231  and  _234
REMARK   98  A    between atoms: _234  and  _235
REMARK   99  A    between atoms: _240  and  _242
REMARK  100  A    between atoms: _242  and  _243
REMARK  101  A    between atoms: _242  and  _245
REMARK  102  A    between atoms: _245  and  _246
REMARK  103  A    between atoms: _249  and  _251
REMARK  104  A    between atoms: _251  and  _252
REMARK  105  A    between atoms: _251  and  _254
REMARK  106  A    between atoms: _254  and  _255
REMARK  107  A    between atoms: _258  and  _260
REMARK  108  A    between atoms: _260  and  _261
REMARK  109  A    between atoms: _263  and  _265
REMARK  110  A    between atoms: _265  and  _266
REMARK  111  A    between atoms: _265  and  _268
REMARK  112  A    between atoms: _268  and  _269
REMARK  113  A    between atoms: _269  and  _270
REMARK  114  A    between atoms: _270  and  _271
REMARK  115  A    between atoms: _280  and  _282
REMARK  116  A    between atoms: _282  and  _283
REMARK  117  A    between atoms: _282  and  _285
REMARK  118  A    between atoms: _285  and  _286
REMARK  119  A    between atoms: _291  and  _293
REMARK  120  A    between atoms: _293  and  _294
REMARK  121  A    between atoms: _293  and  _296
REMARK  122  A    between atoms: _296  and  _297
REMARK  123  A    between atoms: _297  and  _298
REMARK  124  A    between atoms: _298  and  _299
REMARK  125  A    between atoms: _308  and  _310
REMARK  126  A    between atoms: _310  and  _311
REMARK  127  A    between atoms: _310  and  _313
REMARK  128  A    between atoms: _313  and  _314
REMARK  129  A    between atoms: _317  and  _319
REMARK  130  A    between atoms: _319  and  _320
REMARK  131  A    between atoms: _319  and  _322
REMARK  132  A    between atoms: _322  and  _323
REMARK  133  A    between atoms: _326  and  _328
REMARK  134  A    between atoms: _328  and  _329
REMARK  135  A    between atoms: _328  and  _331
REMARK  136  A    between atoms: _331  and  _332
REMARK  137  A    between atoms: _335  and  _337
REMARK  138  A    between atoms: _337  and  _338
REMARK  139  A    between atoms: _337  and  _340
REMARK  140  A    between atoms: _340  and  _341
REMARK  141  A    between atoms: _344  and  _346
REMARK  142  A    between atoms: _346  and  _347
REMARK  143  A    between atoms: _349  and  _351
REMARK  144  A    between atoms: _351  and  _352
REMARK  145  A    between atoms: _355  and  _357
REMARK  146  A    between atoms: _357  and  _358
REMARK  147  A    between atoms: _357  and  _360
REMARK  148  A    between atoms: _360  and  _361
REMARK  149  A    between atoms: _364  and  _366
REMARK  150  A    between atoms: _366  and  _367
REMARK  151  A    between atoms: _366  and  _369
REMARK  152  A    between atoms: _369  and  _370
REMARK  153  A    between atoms: _370  and  _372
REMARK  154  A    between atoms: _373  and  _375
REMARK  155  A    between atoms: _375  and  _376
REMARK  156  A    between atoms: _375  and  _378
REMARK  157  A    between atoms: _378  and  _379
REMARK  158  A    between atoms: _382  and  _384
REMARK  159  A    between atoms: _384  and  _385
REMARK  160  A    between atoms: _384  and  _387
REMARK  161  A    between atoms: _390  and  _392
REMARK  162  A    between atoms: _392  and  _393
REMARK  163  A    between atoms: _392  and  _395
REMARK  164  A    between atoms: _395  and  _396
REMARK  165  A    between atoms: _396  and  _397
REMARK  166  A    between atoms: _397  and  _398
REMARK  167  A    between atoms: _398  and  _399
REMARK  168  A    between atoms: _403  and  _405
REMARK  169  A    between atoms: _405  and  _406
REMARK  170  A    between atoms: _405  and  _408
REMARK  171  A    between atoms: _408  and  _409
REMARK  172  A    between atoms: _409  and  _410
REMARK  173  A    between atoms: _412  and  _414
REMARK  174  A    between atoms: _414  and  _415
REMARK  175  A    between atoms: _414  and  _417
REMARK  176  A    between atoms: _417  and  _418
REMARK  177  A    between atoms: _421  and  _423
REMARK  178  A    between atoms: _423  and  _424
REMARK  179  A    between atoms: _426  and  _428
REMARK  180  A    between atoms: _428  and  _429
REMARK  181  A    between atoms: _431  and  _433
REMARK  182  A    between atoms: _433  and  _434
REMARK  183  A    between atoms: _433  and  _436
REMARK  184  A    between atoms: _436  and  _437
REMARK  185  A    between atoms: _440  and  _442
REMARK  186  A    between atoms: _442  and  _443
REMARK  187  A    between atoms: _445  and  _447
REMARK  188  A    between atoms: _447  and  _448
REMARK  189  A    between atoms: _450  and  _452
REMARK  190  A    between atoms: _452  and  _453
REMARK  191  A    between atoms: _452  and  _455
REMARK  192  A    between atoms: _455  and  _456
REMARK  193  A    between atoms: _459  and  _461
REMARK  194  A    between atoms: _461  and  _462
REMARK  195  A    between atoms: _461  and  _464
REMARK  196  A    between atoms: _464  and  _465
REMARK  197  A    between atoms: _468  and  _470
REMARK  198  A    between atoms: _470  and  _471
REMARK  199  A    between atoms: _470  and  _473
REMARK  200  A    between atoms: _473  and  _474
REMARK  201  A    between atoms: _478  and  _479
REMARK  202  A    between atoms: _484  and  _486
REMARK  203  A    between atoms: _486  and  _487
REMARK  204  A    between atoms: _486  and  _489
REMARK  205  A    between atoms: _492  and  _494
REMARK  206  A    between atoms: _494  and  _495
REMARK  207  A    between atoms: _494  and  _497
REMARK  208  A    between atoms: _497  and  _498
REMARK  209  A    between atoms: _503  and  _505
REMARK  210  A    between atoms: _505  and  _506
REMARK  211  A    between atoms: _505  and  _508
REMARK  212  A    between atoms: _508  and  _509
REMARK  213  A    between atoms: _512  and  _514
REMARK  214  A    between atoms: _514  and  _515
REMARK  215  A    between atoms: _514  and  _517
REMARK  216  A    between atoms: _517  and  _518
REMARK  217  A    between atoms: _521  and  _523
REMARK  218  A    between atoms: _523  and  _524
REMARK  219  A    between atoms: _526  and  _528
REMARK  220  A    between atoms: _528  and  _529
REMARK  221  A    between atoms: _528  and  _531
REMARK  222  A    between atoms: _531  and  _532
REMARK  223  A    between atoms: _532  and  _533
REMARK  224  A    between atoms: _533  and  _534
REMARK  225  A    between atoms: _543  and  _545
REMARK  226  A    between atoms: _545  and  _546
REMARK  227  A    between atoms: _545  and  _548
REMARK  228  A    between atoms: _548  and  _549
REMARK                            x       y       z     vdW  Elec       q    Type
REMARK                         _______ _______ _______ _____ _____    ______ ____
ROOT
ATOM      1  O   HOH     1      -9.084  23.264  15.581  0.00  0.00    +0.000 OA
ENDROOT
TORSDOF 0
REMARK  Name = ../refined-set-2016/4ll3/4ll3_pocket.pdb
REMARK  228 active torsions:
REMARK  status: ('A' for Active; 'I' for Inactive)
REMARK    1  A    between atoms: _1  and  _3
REMARK    2  A    between atoms: _3  and  _4
REMARK    3  A    between atoms: _3  and  _6
REMARK    4  A    between atoms: _6  and  _7
REMARK    5  A    between atoms: _7  and  _8
REMARK    6  A    between atoms: _8  and  _9
REMARK    7  A    between atoms: _18  and  _20
REMARK    8  A    between atoms: _20  and  _21
REMARK    9  A    between atoms: _20  and  _23
REMARK   10  A    between atoms: _23  and  _24
REMARK   11  A    between atoms: _27  and  _29
REMARK   12  A    between atoms: _29  and  _30
REMARK   13  A    between atoms: _29  and  _32
REMARK   14  A    between atoms: _32  and  _33
REMARK   15  A    between atoms: _36  and  _38
REMARK   16  A    between atoms: _38  and  _39
REMARK   17  A    between atoms: _38  and  _41
REMARK   18  A    between atoms: _41  and  _42
REMARK   19  A    between atoms: _45  and  _47
REMARK   20  A    between atoms: _47  and  _48
REMARK   21  A    between atoms: _47  and  _50
REMARK   22  A    between atoms: _50  and  _51
REMARK   23  A    between atoms: _54  and  _56
REMARK   24  A    between atoms: _56  and  _57
REMARK   25  A    between atoms: _59  and  _61
REMARK   26  A    between atoms: _61  and  _62
REMARK   27  A    between atoms: _65  and  _67
REMARK   28  A    between atoms: _67  and  _68
REMARK   29  A    between atoms: _67  and  _70
REMARK   30  A    between atoms: _70  and  _71
REMARK   31  A    between atoms: _74  and  _76
REMARK   32  A    between atoms: _76  and  _77
REMARK   33  A    between atoms: _76  and  _79
REMARK   34  A    between atoms: _79  and  _80
REMARK   35  A    between atoms: _80  and  _82
REMARK   36  A    between atoms: _83  and  _85
REMARK   37  A    between atoms: _85  and  _86
REMARK   38  A    between atoms: _85  and  _88
REMARK   39  A    between atoms: _88  and  _89
REMARK   40  A    between atoms: _92  and  _94
REMARK   41  A    between atoms: _94  and  _95
REMARK   42  A    between atoms: _94  and  _97
REMARK   43  A    between atoms: _100  and  _102
REMARK   44  A    between atoms: _102  and  _103
REMARK   45  A    between atoms: _102  and  _105
REMARK   46  A    between atoms: _105  and  _106
REMARK   47  A    between atoms: _106  and  _107
REMARK   48  A    between atoms: _107  and  _108
REMARK   49  A    between atoms: _108  and  _109
REMARK   50  A    between atoms: _113  and  _115
REMARK   51  A    between atoms: _115  and  _116
REMARK   52  A    between atoms: _115  and  _118
REMARK   53  A    between atoms: _118  and  _119
REMARK   54  A    between atoms: _119  and  _120
REMARK   55  A    between atoms: _122  and  _124
REMARK   56  A    between atoms: _124  and  _125
REMARK   57  A    between atoms: _124  and  _127
REMARK   58  A    between atoms: _127  and  _128
REMARK   59  A    between atoms: _131  and  _133
REMARK   60  A    between atoms: _133  and  _134
REMARK   61  A    between atoms: _136  and  _138
REMARK   62  A    between atoms: _138  and  _139
REMARK   63  A    between atoms: _141  and  _143
REMARK   64  A    between atoms: _143  and  _144
REMARK   65  A    between atoms: _143  and  _146
REMARK   66  A    between atoms: _146  and  _147
REMARK   67  A    between atoms: _150  and  _152
REMARK   68  A    between atoms: _152  and  _153
REMARK   69  A    between atoms: _155  and  _157
REMARK   70  A    between atoms: _157  and  _158
REMARK   71  A    between atoms: _160  and  _162
REMARK   72  A    between atoms: _162  and  _163
REMARK   73  A    between atoms: _162  and  _165
REMARK   74  A    between atoms: _165  and  _166
REMARK   75  A    between atoms: _172  and  _174
REMARK   76  A    between atoms: _174  and  _175
REMARK   77  A    between atoms: _174  and  _177
REMARK   78  A    between atoms: _177  and  _178
REMARK   79  A    between atoms: _181  and  _183
REMARK   80  A    between atoms: _183  and  _184
REMARK   81  A    between atoms: _183  and  _186
REMARK   82  A    between atoms: _189  and  _191
REMARK   83  A    between atoms: _191  and  _192
REMARK   84  A    between atoms: _191  and  _194
REMARK   85  A    between atoms: _194  and  _195
REMARK   86  A    between atoms: _199  and  _200
REMARK   87  A    between atoms: _205  and  _207
REMARK   88  A    between atoms: _207  and  _208
REMARK   89  A    between atoms: _207  and  _210
REMARK   90  A    between atoms: _210  and  _211
REMARK   91  A    between atoms: _215  and  _216
REMARK   92  A    between atoms: _221  and  _223
REMARK   93  A    between atoms: _223  and  _224
REMARK   94  A    between atoms: _223  and  _226
REMARK   95  A    between atoms: _229  and  _231
REMARK   96  A    between atoms: _231  and  _232
REMARK   97  A    between atoms: _231  and  _234
REMARK   98  A    between atoms: _234  and  _235
REMARK   99  A    between atoms: _240  and  _242
REMARK  100  A    between atoms: _242  and  _243
REMARK  101  A    between atoms: _242  and  _245
REMARK  102  A    between atoms: _245  and  _246
REMARK  103  A    between atoms: _249  and  _251
REMARK  104  A    between atoms: _251  and  _252
REMARK  105  A    between atoms: _251  and  _254
REMARK  106  A    between atoms: _254  and  _255
REMARK  107  A    between atoms: _258  and  _260
REMARK  108  A    between atoms: _260  and  _261
REMARK  109  A    between atoms: _263  and  _265
REMARK  110  A    between atoms: _265  and  _266
REMARK  111  A    between atoms: _265  and  _268
REMARK  112  A    between atoms: _268  and  _269
REMARK  113  A    between atoms: _269  and  _270
REMARK  114  A    between atoms: _270  and  _271
REMARK  115  A    between atoms: _280  and  _282
REMARK  116  A    between atoms: _282  and  _283
REMARK  117  A    between atoms: _282  and  _285
REMARK  118  A    between atoms: _285  and  _286
REMARK  119  A    between atoms: _291  and  _293
REMARK  120  A    between atoms: _293  and  _294
REMARK  121  A    between atoms: _293  and  _296
REMARK  122  A    between atoms: _296  and  _297
REMARK  123  A    between atoms: _297  and  _298
REMARK  124  A    between atoms: _298  and  _299
REMARK  125  A    between atoms: _308  and  _310
REMARK  126  A    between atoms: _310  and  _311
REMARK  127  A    between atoms: _310  and  _313
REMARK  128  A    between atoms: _313  and  _314
REMARK  129  A    between atoms: _317  and  _319
REMARK  130  A    between atoms: _319  and  _320
REMARK  131  A    between atoms: _319  and  _322
REMARK  132  A    between atoms: _322  and  _323
REMARK  133  A    between atoms: _326  and  _328
REMARK  134  A    between atoms: _328  and  _329
REMARK  135  A    between atoms: _328  and  _331
REMARK  136  A    between atoms: _331  and  _332
REMARK  137  A    between atoms: _335  and  _337
REMARK  138  A    between atoms: _337  and  _338
REMARK  139  A    between atoms: _337  and  _340
REMARK  140  A    between atoms: _340  and  _341
REMARK  141  A    between atoms: _344  and  _346
REMARK  142  A    between atoms: _346  and  _347
REMARK  143  A    between atoms: _349  and  _351
REMARK  144  A    between atoms: _351  and  _352
REMARK  145  A    between atoms: _355  and  _357
REMARK  146  A    between atoms: _357  and  _358
REMARK  147  A    between atoms: _357  and  _360
REMARK  148  A    between atoms: _360  and  _361
REMARK  149  A    between atoms: _364  and  _366
REMARK  150  A    between atoms: _366  and  _367
REMARK  151  A    between atoms: _366  and  _369
REMARK  152  A    between atoms: _369  and  _370
REMARK  153  A    between atoms: _370  and  _372
REMARK  154  A    between atoms: _373  and  _375
REMARK  155  A    between atoms: _375  and  _376
REMARK  156  A    between atoms: _375  and  _378
REMARK  157  A    between atoms: _378  and  _379
REMARK  158  A    between atoms: _382  and  _384
REMARK  159  A    between atoms: _384  and  _385
REMARK  160  A    between atoms: _384  and  _387
REMARK  161  A    between atoms: _390  and  _392
REMARK  162  A    between atoms: _392  and  _393
REMARK  163  A    between atoms: _392  and  _395
REMARK  164  A    between atoms: _395  and  _396
REMARK  165  A    between atoms: _396  and  _397
REMARK  166  A    between atoms: _397  and  _398
REMARK  167  A    between atoms: _398  and  _399
REMARK  168  A    between atoms: _403  and  _405
REMARK  169  A    between atoms: _405  and  _406
REMARK  170  A    between atoms: _405  and  _408
REMARK  171  A    between atoms: _408  and  _409
REMARK  172  A    between atoms: _409  and  _410
REMARK  173  A    between atoms: _412  and  _414
REMARK  174  A    between atoms: _414  and  _415
REMARK  175  A    between atoms: _414  and  _417
REMARK  176  A    between atoms: _417  and  _418
REMARK  177  A    between atoms: _421  and  _423
REMARK  178  A    between atoms: _423  and  _424
REMARK  179  A    between atoms: _426  and  _428
REMARK  180  A    between atoms: _428  and  _429
REMARK  181  A    between atoms: _431  and  _433
REMARK  182  A    between atoms: _433  and  _434
REMARK  183  A    between atoms: _433  and  _436
REMARK  184  A    between atoms: _436  and  _437
REMARK  185  A    between atoms: _440  and  _442
REMARK  186  A    between atoms: _442  and  _443
REMARK  187  A    between atoms: _445  and  _447
REMARK  188  A    between atoms: _447  and  _448
REMARK  189  A    between atoms: _450  and  _452
REMARK  190  A    between atoms: _452  and  _453
REMARK  191  A    between atoms: _452  and  _455
REMARK  192  A    between atoms: _455  and  _456
REMARK  193  A    between atoms: _459  and  _461
REMARK  194  A    between atoms: _461  and  _462
REMARK  195  A    between atoms: _461  and  _464
REMARK  196  A    between atoms: _464  and  _465
REMARK  197  A    between atoms: _468  and  _470
REMARK  198  A    between atoms: _470  and  _471
REMARK  199  A    between atoms: _470  and  _473
REMARK  200  A    between atoms: _473  and  _474
REMARK  201  A    between atoms: _478  and  _479
REMARK  202  A    between atoms: _484  and  _486
REMARK  203  A    between atoms: _486  and  _487
REMARK  204  A    between atoms: _486  and  _489
REMARK  205  A    between atoms: _492  and  _494
REMARK  206  A    between atoms: _494  and  _495
REMARK  207  A    between atoms: _494  and  _497
REMARK  208  A    between atoms: _497  and  _498
REMARK  209  A    between atoms: _503  and  _505
REMARK  210  A    between atoms: _505  and  _506
REMARK  211  A    between atoms: _505  and  _508
REMARK  212  A    between atoms: _508  and  _509
REMARK  213  A    between atoms: _512  and  _514
REMARK  214  A    between atoms: _514  and  _515
REMARK  215  A    between atoms: _514  and  _517
REMARK  216  A    between atoms: _517  and  _518
REMARK  217  A    between atoms: _521  and  _523
REMARK  218  A    between atoms: _523  and  _524
REMARK  219  A    between atoms: _526  and  _528
REMARK  220  A    between atoms: _528  and  _529
REMARK  221  A    between atoms: _528  and  _531
REMARK  222  A    between atoms: _531  and  _532
REMARK  223  A    between atoms: _532  and  _533
REMARK  224  A    between atoms: _533  and  _534
REMARK  225  A    between atoms: _543  and  _545
REMARK  226  A    between atoms: _545  and  _546
REMARK  227  A    between atoms: _545  and  _548
REMARK  228  A    between atoms: _548  and  _549
REMARK                            x       y       z     vdW  Elec       q    Type
REMARK                         _______ _______ _______ _____ _____    ______ ____
ROOT
ATOM      1  O   HOH     1      -4.649  19.314  16.146  0.00  0.00    +0.000 OA
ENDROOT
TORSDOF 0
REMARK  Name = ../refined-set-2016/4ll3/4ll3_pocket.pdb
REMARK  228 active torsions:
REMARK  status: ('A' for Active; 'I' for Inactive)
REMARK    1  A    between atoms: _1  and  _3
REMARK    2  A    between atoms: _3  and  _4
REMARK    3  A    between atoms: _3  and  _6
REMARK    4  A    between atoms: _6  and  _7
REMARK    5  A    between atoms: _7  and  _8
REMARK    6  A    between atoms: _8  and  _9
REMARK    7  A    between atoms: _18  and  _20
REMARK    8  A    between atoms: _20  and  _21
REMARK    9  A    between atoms: _20  and  _23
REMARK   10  A    between atoms: _23  and  _24
REMARK   11  A    between atoms: _27  and  _29
REMARK   12  A    between atoms: _29  and  _30
REMARK   13  A    between atoms: _29  and  _32
REMARK   14  A    between atoms: _32  and  _33
REMARK   15  A    between atoms: _36  and  _38
REMARK   16  A    between atoms: _38  and  _39
REMARK   17  A    between atoms: _38  and  _41
REMARK   18  A    between atoms: _41  and  _42
REMARK   19  A    between atoms: _45  and  _47
REMARK   20  A    between atoms: _47  and  _48
REMARK   21  A    between atoms: _47  and  _50
REMARK   22  A    between atoms: _50  and  _51
REMARK   23  A    between atoms: _54  and  _56
REMARK   24  A    between atoms: _56  and  _57
REMARK   25  A    between atoms: _59  and  _61
REMARK   26  A    between atoms: _61  and  _62
REMARK   27  A    between atoms: _65  and  _67
REMARK   28  A    between atoms: _67  and  _68
REMARK   29  A    between atoms: _67  and  _70
REMARK   30  A    between atoms: _70  and  _71
REMARK   31  A    between atoms: _74  and  _76
REMARK   32  A    between atoms: _76  and  _77
REMARK   33  A    between atoms: _76  and  _79
REMARK   34  A    between atoms: _79  and  _80
REMARK   35  A    between atoms: _80  and  _82
REMARK   36  A    between atoms: _83  and  _85
REMARK   37  A    between atoms: _85  and  _86
REMARK   38  A    between atoms: _85  and  _88
REMARK   39  A    between atoms: _88  and  _89
REMARK   40  A    between atoms: _92  and  _94
REMARK   41  A    between atoms: _94  and  _95
REMARK   42  A    between atoms: _94  and  _97
REMARK   43  A    between atoms: _100  and  _102
REMARK   44  A    between atoms: _102  and  _103
REMARK   45  A    between atoms: _102  and  _105
REMARK   46  A    between atoms: _105  and  _106
REMARK   47  A    between atoms: _106  and  _107
REMARK   48  A    between atoms: _107  and  _108
REMARK   49  A    between atoms: _108  and  _109
REMARK   50  A    between atoms: _113  and  _115
REMARK   51  A    between atoms: _115  and  _116
REMARK   52  A    between atoms: _115  and  _118
REMARK   53  A    between atoms: _118  and  _119
REMARK   54  A    between atoms: _119  and  _120
REMARK   55  A    between atoms: _122  and  _124
REMARK   56  A    between atoms: _124  and  _125
REMARK   57  A    between atoms: _124  and  _127
REMARK   58  A    between atoms: _127  and  _128
REMARK   59  A    between atoms: _131  and  _133
REMARK   60  A    between atoms: _133  and  _134
REMARK   61  A    between atoms: _136  and  _138
REMARK   62  A    between atoms: _138  and  _139
REMARK   63  A    between atoms: _141  and  _143
REMARK   64  A    between atoms: _143  and  _144
REMARK   65  A    between atoms: _143  and  _146
REMARK   66  A    between atoms: _146  and  _147
REMARK   67  A    between atoms: _150  and  _152
REMARK   68  A    between atoms: _152  and  _153
REMARK   69  A    between atoms: _155  and  _157
REMARK   70  A    between atoms: _157  and  _158
REMARK   71  A    between atoms: _160  and  _162
REMARK   72  A    between atoms: _162  and  _163
REMARK   73  A    between atoms: _162  and  _165
REMARK   74  A    between atoms: _165  and  _166
REMARK   75  A    between atoms: _172  and  _174
REMARK   76  A    between atoms: _174  and  _175
REMARK   77  A    between atoms: _174  and  _177
REMARK   78  A    between atoms: _177  and  _178
REMARK   79  A    between atoms: _181  and  _183
REMARK   80  A    between atoms: _183  and  _184
REMARK   81  A    between atoms: _183  and  _186
REMARK   82  A    between atoms: _189  and  _191
REMARK   83  A    between atoms: _191  and  _192
REMARK   84  A    between atoms: _191  and  _194
REMARK   85  A    between atoms: _194  and  _195
REMARK   86  A    between atoms: _199  and  _200
REMARK   87  A    between atoms: _205  and  _207
REMARK   88  A    between atoms: _207  and  _208
REMARK   89  A    between atoms: _207  and  _210
REMARK   90  A    between atoms: _210  and  _211
REMARK   91  A    between atoms: _215  and  _216
REMARK   92  A    between atoms: _221  and  _223
REMARK   93  A    between atoms: _223  and  _224
REMARK   94  A    between atoms: _223  and  _226
REMARK   95  A    between atoms: _229  and  _231
REMARK   96  A    between atoms: _231  and  _232
REMARK   97  A    between atoms: _231  and  _234
REMARK   98  A    between atoms: _234  and  _235
REMARK   99  A    between atoms: _240  and  _242
REMARK  100  A    between atoms: _242  and  _243
REMARK  101  A    between atoms: _242  and  _245
REMARK  102  A    between atoms: _245  and  _246
REMARK  103  A    between atoms: _249  and  _251
REMARK  104  A    between atoms: _251  and  _252
REMARK  105  A    between atoms: _251  and  _254
REMARK  106  A    between atoms: _254  and  _255
REMARK  107  A    between atoms: _258  and  _260
REMARK  108  A    between atoms: _260  and  _261
REMARK  109  A    between atoms: _263  and  _265
REMARK  110  A    between atoms: _265  and  _266
REMARK  111  A    between atoms: _265  and  _268
REMARK  112  A    between atoms: _268  and  _269
REMARK  113  A    between atoms: _269  and  _270
REMARK  114  A    between atoms: _270  and  _271
REMARK  115  A    between atoms: _280  and  _282
REMARK  116  A    between atoms: _282  and  _283
REMARK  117  A    between atoms: _282  and  _285
REMARK  118  A    between atoms: _285  and  _286
REMARK  119  A    between atoms: _291  and  _293
REMARK  120  A    between atoms: _293  and  _294
REMARK  121  A    between atoms: _293  and  _296
REMARK  122  A    between atoms: _296  and  _297
REMARK  123  A    between atoms: _297  and  _298
REMARK  124  A    between atoms: _298  and  _299
REMARK  125  A    between atoms: _308  and  _310
REMARK  126  A    between atoms: _310  and  _311
REMARK  127  A    between atoms: _310  and  _313
REMARK  128  A    between atoms: _313  and  _314
REMARK  129  A    between atoms: _317  and  _319
REMARK  130  A    between atoms: _319  and  _320
REMARK  131  A    between atoms: _319  and  _322
REMARK  132  A    between atoms: _322  and  _323
REMARK  133  A    between atoms: _326  and  _328
REMARK  134  A    between atoms: _328  and  _329
REMARK  135  A    between atoms: _328  and  _331
REMARK  136  A    between atoms: _331  and  _332
REMARK  137  A    between atoms: _335  and  _337
REMARK  138  A    between atoms: _337  and  _338
REMARK  139  A    between atoms: _337  and  _340
REMARK  140  A    between atoms: _340  and  _341
REMARK  141  A    between atoms: _344  and  _346
REMARK  142  A    between atoms: _346  and  _347
REMARK  143  A    between atoms: _349  and  _351
REMARK  144  A    between atoms: _351  and  _352
REMARK  145  A    between atoms: _355  and  _357
REMARK  146  A    between atoms: _357  and  _358
REMARK  147  A    between atoms: _357  and  _360
REMARK  148  A    between atoms: _360  and  _361
REMARK  149  A    between atoms: _364  and  _366
REMARK  150  A    between atoms: _366  and  _367
REMARK  151  A    between atoms: _366  and  _369
REMARK  152  A    between atoms: _369  and  _370
REMARK  153  A    between atoms: _370  and  _372
REMARK  154  A    between atoms: _373  and  _375
REMARK  155  A    between atoms: _375  and  _376
REMARK  156  A    between atoms: _375  and  _378
REMARK  157  A    between atoms: _378  and  _379
REMARK  158  A    between atoms: _382  and  _384
REMARK  159  A    between atoms: _384  and  _385
REMARK  160  A    between atoms: _384  and  _387
REMARK  161  A    between atoms: _390  and  _392
REMARK  162  A    between atoms: _392  and  _393
REMARK  163  A    between atoms: _392  and  _395
REMARK  164  A    between atoms: _395  and  _396
REMARK  165  A    between atoms: _396  and  _397
REMARK  166  A    between atoms: _397  and  _398
REMARK  167  A    between atoms: _398  and  _399
REMARK  168  A    between atoms: _403  and  _405
REMARK  169  A    between atoms: _405  and  _406
REMARK  170  A    between atoms: _405  and  _408
REMARK  171  A    between atoms: _408  and  _409
REMARK  172  A    between atoms: _409  and  _410
REMARK  173  A    between atoms: _412  and  _414
REMARK  174  A    between atoms: _414  and  _415
REMARK  175  A    between atoms: _414  and  _417
REMARK  176  A    between atoms: _417  and  _418
REMARK  177  A    between atoms: _421  and  _423
REMARK  178  A    between atoms: _423  and  _424
REMARK  179  A    between atoms: _426  and  _428
REMARK  180  A    between atoms: _428  and  _429
REMARK  181  A    between atoms: _431  and  _433
REMARK  182  A    between atoms: _433  and  _434
REMARK  183  A    between atoms: _433  and  _436
REMARK  184  A    between atoms: _436  and  _437
REMARK  185  A    between atoms: _440  and  _442
REMARK  186  A    between atoms: _442  and  _443
REMARK  187  A    between atoms: _445  and  _447
REMARK  188  A    between atoms: _447  and  _448
REMARK  189  A    between atoms: _450  and  _452
REMARK  190  A    between atoms: _452  and  _453
REMARK  191  A    between atoms: _452  and  _455
REMARK  192  A    between atoms: _455  and  _456
REMARK  193  A    between atoms: _459  and  _461
REMARK  194  A    between atoms: _461  and  _462
REMARK  195  A    between atoms: _461  and  _464
REMARK  196  A    between atoms: _464  and  _465
REMARK  197  A    between atoms: _468  and  _470
REMARK  198  A    between atoms: _470  and  _471
REMARK  199  A    between atoms: _470  and  _473
REMARK  200  A    between atoms: _473  and  _474
REMARK  201  A    between atoms: _478  and  _479
REMARK  202  A    between atoms: _484  and  _486
REMARK  203  A    between atoms: _486  and  _487
REMARK  204  A    between atoms: _486  and  _489
REMARK  205  A    between atoms: _492  and  _494
REMARK  206  A    between atoms: _494  and  _495
REMARK  207  A    between atoms: _494  and  _497
REMARK  208  A    between atoms: _497  and  _498
REMARK  209  A    between atoms: _503  and  _505
REMARK  210  A    between atoms: _505  and  _506
REMARK  211  A    between atoms: _505  and  _508
REMARK  212  A    between atoms: _508  and  _509
REMARK  213  A    between atoms: _512  and  _514
REMARK  214  A    between atoms: _514  and  _515
REMARK  215  A    between atoms: _514  and  _517
REMARK  216  A    between atoms: _517  and  _518
REMARK  217  A    between atoms: _521  and  _523
REMARK  218  A    between atoms: _523  and  _524
REMARK  219  A    between atoms: _526  and  _528
REMARK  220  A    between atoms: _528  and  _529
REMARK  221  A    between atoms: _528  and  _531
REMARK  222  A    between atoms: _531  and  _532
REMARK  223  A    between atoms: _532  and  _533
REMARK  224  A    between atoms: _533  and  _534
REMARK  225  A    between atoms: _543  and  _545
REMARK  226  A    between atoms: _545  and  _546
REMARK  227  A    between atoms: _545  and  _548
REMARK  228  A    between atoms: _548  and  _549
REMARK                            x       y       z     vdW  Elec       q    Type
REMARK                         _______ _______ _______ _____ _____    ______ ____
ROOT
ATOM      1  O   HOH     1     -16.929  13.627  30.284  0.00  0.00    +0.000 OA
ENDROOT
TORSDOF 0
REMARK  Name = ../refined-set-2016/4ll3/4ll3_pocket.pdb
REMARK  228 active torsions:
REMARK  status: ('A' for Active; 'I' for Inactive)
REMARK    1  A    between atoms: _1  and  _3
REMARK    2  A    between atoms: _3  and  _4
REMARK    3  A    between atoms: _3  and  _6
REMARK    4  A    between atoms: _6  and  _7
REMARK    5  A    between atoms: _7  and  _8
REMARK    6  A    between atoms: _8  and  _9
REMARK    7  A    between atoms: _18  and  _20
REMARK    8  A    between atoms: _20  and  _21
REMARK    9  A    between atoms: _20  and  _23
REMARK   10  A    between atoms: _23  and  _24
REMARK   11  A    between atoms: _27  and  _29
REMARK   12  A    between atoms: _29  and  _30
REMARK   13  A    between atoms: _29  and  _32
REMARK   14  A    between atoms: _32  and  _33
REMARK   15  A    between atoms: _36  and  _38
REMARK   16  A    between atoms: _38  and  _39
REMARK   17  A    between atoms: _38  and  _41
REMARK   18  A    between atoms: _41  and  _42
REMARK   19  A    between atoms: _45  and  _47
REMARK   20  A    between atoms: _47  and  _48
REMARK   21  A    between atoms: _47  and  _50
REMARK   22  A    between atoms: _50  and  _51
REMARK   23  A    between atoms: _54  and  _56
REMARK   24  A    between atoms: _56  and  _57
REMARK   25  A    between atoms: _59  and  _61
REMARK   26  A    between atoms: _61  and  _62
REMARK   27  A    between atoms: _65  and  _67
REMARK   28  A    between atoms: _67  and  _68
REMARK   29  A    between atoms: _67  and  _70
REMARK   30  A    between atoms: _70  and  _71
REMARK   31  A    between atoms: _74  and  _76
REMARK   32  A    between atoms: _76  and  _77
REMARK   33  A    between atoms: _76  and  _79
REMARK   34  A    between atoms: _79  and  _80
REMARK   35  A    between atoms: _80  and  _82
REMARK   36  A    between atoms: _83  and  _85
REMARK   37  A    between atoms: _85  and  _86
REMARK   38  A    between atoms: _85  and  _88
REMARK   39  A    between atoms: _88  and  _89
REMARK   40  A    between atoms: _92  and  _94
REMARK   41  A    between atoms: _94  and  _95
REMARK   42  A    between atoms: _94  and  _97
REMARK   43  A    between atoms: _100  and  _102
REMARK   44  A    between atoms: _102  and  _103
REMARK   45  A    between atoms: _102  and  _105
REMARK   46  A    between atoms: _105  and  _106
REMARK   47  A    between atoms: _106  and  _107
REMARK   48  A    between atoms: _107  and  _108
REMARK   49  A    between atoms: _108  and  _109
REMARK   50  A    between atoms: _113  and  _115
REMARK   51  A    between atoms: _115  and  _116
REMARK   52  A    between atoms: _115  and  _118
REMARK   53  A    between atoms: _118  and  _119
REMARK   54  A    between atoms: _119  and  _120
REMARK   55  A    between atoms: _122  and  _124
REMARK   56  A    between atoms: _124  and  _125
REMARK   57  A    between atoms: _124  and  _127
REMARK   58  A    between atoms: _127  and  _128
REMARK   59  A    between atoms: _131  and  _133
REMARK   60  A    between atoms: _133  and  _134
REMARK   61  A    between atoms: _136  and  _138
REMARK   62  A    between atoms: _138  and  _139
REMARK   63  A    between atoms: _141  and  _143
REMARK   64  A    between atoms: _143  and  _144
REMARK   65  A    between atoms: _143  and  _146
REMARK   66  A    between atoms: _146  and  _147
REMARK   67  A    between atoms: _150  and  _152
REMARK   68  A    between atoms: _152  and  _153
REMARK   69  A    between atoms: _155  and  _157
REMARK   70  A    between atoms: _157  and  _158
REMARK   71  A    between atoms: _160  and  _162
REMARK   72  A    between atoms: _162  and  _163
REMARK   73  A    between atoms: _162  and  _165
REMARK   74  A    between atoms: _165  and  _166
REMARK   75  A    between atoms: _172  and  _174
REMARK   76  A    between atoms: _174  and  _175
REMARK   77  A    between atoms: _174  and  _177
REMARK   78  A    between atoms: _177  and  _178
REMARK   79  A    between atoms: _181  and  _183
REMARK   80  A    between atoms: _183  and  _184
REMARK   81  A    between atoms: _183  and  _186
REMARK   82  A    between atoms: _189  and  _191
REMARK   83  A    between atoms: _191  and  _192
REMARK   84  A    between atoms: _191  and  _194
REMARK   85  A    between atoms: _194  and  _195
REMARK   86  A    between atoms: _199  and  _200
REMARK   87  A    between atoms: _205  and  _207
REMARK   88  A    between atoms: _207  and  _208
REMARK   89  A    between atoms: _207  and  _210
REMARK   90  A    between atoms: _210  and  _211
REMARK   91  A    between atoms: _215  and  _216
REMARK   92  A    between atoms: _221  and  _223
REMARK   93  A    between atoms: _223  and  _224
REMARK   94  A    between atoms: _223  and  _226
REMARK   95  A    between atoms: _229  and  _231
REMARK   96  A    between atoms: _231  and  _232
REMARK   97  A    between atoms: _231  and  _234
REMARK   98  A    between atoms: _234  and  _235
REMARK   99  A    between atoms: _240  and  _242
REMARK  100  A    between atoms: _242  and  _243
REMARK  101  A    between atoms: _242  and  _245
REMARK  102  A    between atoms: _245  and  _246
REMARK  103  A    between atoms: _249  and  _251
REMARK  104  A    between atoms: _251  and  _252
REMARK  105  A    between atoms: _251  and  _254
REMARK  106  A    between atoms: _254  and  _255
REMARK  107  A    between atoms: _258  and  _260
REMARK  108  A    between atoms: _260  and  _261
REMARK  109  A    between atoms: _263  and  _265
REMARK  110  A    between atoms: _265  and  _266
REMARK  111  A    between atoms: _265  and  _268
REMARK  112  A    between atoms: _268  and  _269
REMARK  113  A    between atoms: _269  and  _270
REMARK  114  A    between atoms: _270  and  _271
REMARK  115  A    between atoms: _280  and  _282
REMARK  116  A    between atoms: _282  and  _283
REMARK  117  A    between atoms: _282  and  _285
REMARK  118  A    between atoms: _285  and  _286
REMARK  119  A    between atoms: _291  and  _293
REMARK  120  A    between atoms: _293  and  _294
REMARK  121  A    between atoms: _293  and  _296
REMARK  122  A    between atoms: _296  and  _297
REMARK  123  A    between atoms: _297  and  _298
REMARK  124  A    between atoms: _298  and  _299
REMARK  125  A    between atoms: _308  and  _310
REMARK  126  A    between atoms: _310  and  _311
REMARK  127  A    between atoms: _310  and  _313
REMARK  128  A    between atoms: _313  and  _314
REMARK  129  A    between atoms: _317  and  _319
REMARK  130  A    between atoms: _319  and  _320
REMARK  131  A    between atoms: _319  and  _322
REMARK  132  A    between atoms: _322  and  _323
REMARK  133  A    between atoms: _326  and  _328
REMARK  134  A    between atoms: _328  and  _329
REMARK  135  A    between atoms: _328  and  _331
REMARK  136  A    between atoms: _331  and  _332
REMARK  137  A    between atoms: _335  and  _337
REMARK  138  A    between atoms: _337  and  _338
REMARK  139  A    between atoms: _337  and  _340
REMARK  140  A    between atoms: _340  and  _341
REMARK  141  A    between atoms: _344  and  _346
REMARK  142  A    between atoms: _346  and  _347
REMARK  143  A    between atoms: _349  and  _351
REMARK  144  A    between atoms: _351  and  _352
REMARK  145  A    between atoms: _355  and  _357
REMARK  146  A    between atoms: _357  and  _358
REMARK  147  A    between atoms: _357  and  _360
REMARK  148  A    between atoms: _360  and  _361
REMARK  149  A    between atoms: _364  and  _366
REMARK  150  A    between atoms: _366  and  _367
REMARK  151  A    between atoms: _366  and  _369
REMARK  152  A    between atoms: _369  and  _370
REMARK  153  A    between atoms: _370  and  _372
REMARK  154  A    between atoms: _373  and  _375
REMARK  155  A    between atoms: _375  and  _376
REMARK  156  A    between atoms: _375  and  _378
REMARK  157  A    between atoms: _378  and  _379
REMARK  158  A    between atoms: _382  and  _384
REMARK  159  A    between atoms: _384  and  _385
REMARK  160  A    between atoms: _384  and  _387
REMARK  161  A    between atoms: _390  and  _392
REMARK  162  A    between atoms: _392  and  _393
REMARK  163  A    between atoms: _392  and  _395
REMARK  164  A    between atoms: _395  and  _396
REMARK  165  A    between atoms: _396  and  _397
REMARK  166  A    between atoms: _397  and  _398
REMARK  167  A    between atoms: _398  and  _399
REMARK  168  A    between atoms: _403  and  _405
REMARK  169  A    between atoms: _405  and  _406
REMARK  170  A    between atoms: _405  and  _408
REMARK  171  A    between atoms: _408  and  _409
REMARK  172  A    between atoms: _409  and  _410
REMARK  173  A    between atoms: _412  and  _414
REMARK  174  A    between atoms: _414  and  _415
REMARK  175  A    between atoms: _414  and  _417
REMARK  176  A    between atoms: _417  and  _418
REMARK  177  A    between atoms: _421  and  _423
REMARK  178  A    between atoms: _423  and  _424
REMARK  179  A    between atoms: _426  and  _428
REMARK  180  A    between atoms: _428  and  _429
REMARK  181  A    between atoms: _431  and  _433
REMARK  182  A    between atoms: _433  and  _434
REMARK  183  A    between atoms: _433  and  _436
REMARK  184  A    between atoms: _436  and  _437
REMARK  185  A    between atoms: _440  and  _442
REMARK  186  A    between atoms: _442  and  _443
REMARK  187  A    between atoms: _445  and  _447
REMARK  188  A    between atoms: _447  and  _448
REMARK  189  A    between atoms: _450  and  _452
REMARK  190  A    between atoms: _452  and  _453
REMARK  191  A    between atoms: _452  and  _455
REMARK  192  A    between atoms: _455  and  _456
REMARK  193  A    between atoms: _459  and  _461
REMARK  194  A    between atoms: _461  and  _462
REMARK  195  A    between atoms: _461  and  _464
REMARK  196  A    between atoms: _464  and  _465
REMARK  197  A    between atoms: _468  and  _470
REMARK  198  A    between atoms: _470  and  _471
REMARK  199  A    between atoms: _470  and  _473
REMARK  200  A    between atoms: _473  and  _474
REMARK  201  A    between atoms: _478  and  _479
REMARK  202  A    between atoms: _484  and  _486
REMARK  203  A    between atoms: _486  and  _487
REMARK  204  A    between atoms: _486  and  _489
REMARK  205  A    between atoms: _492  and  _494
REMARK  206  A    between atoms: _494  and  _495
REMARK  207  A    between atoms: _494  and  _497
REMARK  208  A    between atoms: _497  and  _498
REMARK  209  A    between atoms: _503  and  _505
REMARK  210  A    between atoms: _505  and  _506
REMARK  211  A    between atoms: _505  and  _508
REMARK  212  A    between atoms: _508  and  _509
REMARK  213  A    between atoms: _512  and  _514
REMARK  214  A    between atoms: _514  and  _515
REMARK  215  A    between atoms: _514  and  _517
REMARK  216  A    between atoms: _517  and  _518
REMARK  217  A    between atoms: _521  and  _523
REMARK  218  A    between atoms: _523  and  _524
REMARK  219  A    between atoms: _526  and  _528
REMARK  220  A    between atoms: _528  and  _529
REMARK  221  A    between atoms: _528  and  _531
REMARK  222  A    between atoms: _531  and  _532
REMARK  223  A    between atoms: _532  and  _533
REMARK  224  A    between atoms: _533  and  _534
REMARK  225  A    between atoms: _543  and  _545
REMARK  226  A    between atoms: _545  and  _546
REMARK  227  A    between atoms: _545  and  _548
REMARK  228  A    between atoms: _548  and  _549
REMARK                            x       y       z     vdW  Elec       q    Type
REMARK                         _______ _______ _______ _____ _____    ______ ____
ROOT
ATOM      1  O   HOH     1      -9.975  19.903  13.256  0.00  0.00    +0.000 OA
ENDROOT
TORSDOF 0
REMARK  Name = ../refined-set-2016/4ll3/4ll3_pocket.pdb
REMARK  228 active torsions:
REMARK  status: ('A' for Active; 'I' for Inactive)
REMARK    1  A    between atoms: _1  and  _3
REMARK    2  A    between atoms: _3  and  _4
REMARK    3  A    between atoms: _3  and  _6
REMARK    4  A    between atoms: _6  and  _7
REMARK    5  A    between atoms: _7  and  _8
REMARK    6  A    between atoms: _8  and  _9
REMARK    7  A    between atoms: _18  and  _20
REMARK    8  A    between atoms: _20  and  _21
REMARK    9  A    between atoms: _20  and  _23
REMARK   10  A    between atoms: _23  and  _24
REMARK   11  A    between atoms: _27  and  _29
REMARK   12  A    between atoms: _29  and  _30
REMARK   13  A    between atoms: _29  and  _32
REMARK   14  A    between atoms: _32  and  _33
REMARK   15  A    between atoms: _36  and  _38
REMARK   16  A    between atoms: _38  and  _39
REMARK   17  A    between atoms: _38  and  _41
REMARK   18  A    between atoms: _41  and  _42
REMARK   19  A    between atoms: _45  and  _47
REMARK   20  A    between atoms: _47  and  _48
REMARK   21  A    between atoms: _47  and  _50
REMARK   22  A    between atoms: _50  and  _51
REMARK   23  A    between atoms: _54  and  _56
REMARK   24  A    between atoms: _56  and  _57
REMARK   25  A    between atoms: _59  and  _61
REMARK   26  A    between atoms: _61  and  _62
REMARK   27  A    between atoms: _65  and  _67
REMARK   28  A    between atoms: _67  and  _68
REMARK   29  A    between atoms: _67  and  _70
REMARK   30  A    between atoms: _70  and  _71
REMARK   31  A    between atoms: _74  and  _76
REMARK   32  A    between atoms: _76  and  _77
REMARK   33  A    between atoms: _76  and  _79
REMARK   34  A    between atoms: _79  and  _80
REMARK   35  A    between atoms: _80  and  _82
REMARK   36  A    between atoms: _83  and  _85
REMARK   37  A    between atoms: _85  and  _86
REMARK   38  A    between atoms: _85  and  _88
REMARK   39  A    between atoms: _88  and  _89
REMARK   40  A    between atoms: _92  and  _94
REMARK   41  A    between atoms: _94  and  _95
REMARK   42  A    between atoms: _94  and  _97
REMARK   43  A    between atoms: _100  and  _102
REMARK   44  A    between atoms: _102  and  _103
REMARK   45  A    between atoms: _102  and  _105
REMARK   46  A    between atoms: _105  and  _106
REMARK   47  A    between atoms: _106  and  _107
REMARK   48  A    between atoms: _107  and  _108
REMARK   49  A    between atoms: _108  and  _109
REMARK   50  A    between atoms: _113  and  _115
REMARK   51  A    between atoms: _115  and  _116
REMARK   52  A    between atoms: _115  and  _118
REMARK   53  A    between atoms: _118  and  _119
REMARK   54  A    between atoms: _119  and  _120
REMARK   55  A    between atoms: _122  and  _124
REMARK   56  A    between atoms: _124  and  _125
REMARK   57  A    between atoms: _124  and  _127
REMARK   58  A    between atoms: _127  and  _128
REMARK   59  A    between atoms: _131  and  _133
REMARK   60  A    between atoms: _133  and  _134
REMARK   61  A    between atoms: _136  and  _138
REMARK   62  A    between atoms: _138  and  _139
REMARK   63  A    between atoms: _141  and  _143
REMARK   64  A    between atoms: _143  and  _144
REMARK   65  A    between atoms: _143  and  _146
REMARK   66  A    between atoms: _146  and  _147
REMARK   67  A    between atoms: _150  and  _152
REMARK   68  A    between atoms: _152  and  _153
REMARK   69  A    between atoms: _155  and  _157
REMARK   70  A    between atoms: _157  and  _158
REMARK   71  A    between atoms: _160  and  _162
REMARK   72  A    between atoms: _162  and  _163
REMARK   73  A    between atoms: _162  and  _165
REMARK   74  A    between atoms: _165  and  _166
REMARK   75  A    between atoms: _172  and  _174
REMARK   76  A    between atoms: _174  and  _175
REMARK   77  A    between atoms: _174  and  _177
REMARK   78  A    between atoms: _177  and  _178
REMARK   79  A    between atoms: _181  and  _183
REMARK   80  A    between atoms: _183  and  _184
REMARK   81  A    between atoms: _183  and  _186
REMARK   82  A    between atoms: _189  and  _191
REMARK   83  A    between atoms: _191  and  _192
REMARK   84  A    between atoms: _191  and  _194
REMARK   85  A    between atoms: _194  and  _195
REMARK   86  A    between atoms: _199  and  _200
REMARK   87  A    between atoms: _205  and  _207
REMARK   88  A    between atoms: _207  and  _208
REMARK   89  A    between atoms: _207  and  _210
REMARK   90  A    between atoms: _210  and  _211
REMARK   91  A    between atoms: _215  and  _216
REMARK   92  A    between atoms: _221  and  _223
REMARK   93  A    between atoms: _223  and  _224
REMARK   94  A    between atoms: _223  and  _226
REMARK   95  A    between atoms: _229  and  _231
REMARK   96  A    between atoms: _231  and  _232
REMARK   97  A    between atoms: _231  and  _234
REMARK   98  A    between atoms: _234  and  _235
REMARK   99  A    between atoms: _240  and  _242
REMARK  100  A    between atoms: _242  and  _243
REMARK  101  A    between atoms: _242  and  _245
REMARK  102  A    between atoms: _245  and  _246
REMARK  103  A    between atoms: _249  and  _251
REMARK  104  A    between atoms: _251  and  _252
REMARK  105  A    between atoms: _251  and  _254
REMARK  106  A    between atoms: _254  and  _255
REMARK  107  A    between atoms: _258  and  _260
REMARK  108  A    between atoms: _260  and  _261
REMARK  109  A    between atoms: _263  and  _265
REMARK  110  A    between atoms: _265  and  _266
REMARK  111  A    between atoms: _265  and  _268
REMARK  112  A    between atoms: _268  and  _269
REMARK  113  A    between atoms: _269  and  _270
REMARK  114  A    between atoms: _270  and  _271
REMARK  115  A    between atoms: _280  and  _282
REMARK  116  A    between atoms: _282  and  _283
REMARK  117  A    between atoms: _282  and  _285
REMARK  118  A    between atoms: _285  and  _286
REMARK  119  A    between atoms: _291  and  _293
REMARK  120  A    between atoms: _293  and  _294
REMARK  121  A    between atoms: _293  and  _296
REMARK  122  A    between atoms: _296  and  _297
REMARK  123  A    between atoms: _297  and  _298
REMARK  124  A    between atoms: _298  and  _299
REMARK  125  A    between atoms: _308  and  _310
REMARK  126  A    between atoms: _310  and  _311
REMARK  127  A    between atoms: _310  and  _313
REMARK  128  A    between atoms: _313  and  _314
REMARK  129  A    between atoms: _317  and  _319
REMARK  130  A    between atoms: _319  and  _320
REMARK  131  A    between atoms: _319  and  _322
REMARK  132  A    between atoms: _322  and  _323
REMARK  133  A    between atoms: _326  and  _328
REMARK  134  A    between atoms: _328  and  _329
REMARK  135  A    between atoms: _328  and  _331
REMARK  136  A    between atoms: _331  and  _332
REMARK  137  A    between atoms: _335  and  _337
REMARK  138  A    between atoms: _337  and  _338
REMARK  139  A    between atoms: _337  and  _340
REMARK  140  A    between atoms: _340  and  _341
REMARK  141  A    between atoms: _344  and  _346
REMARK  142  A    between atoms: _346  and  _347
REMARK  143  A    between atoms: _349  and  _351
REMARK  144  A    between atoms: _351  and  _352
REMARK  145  A    between atoms: _355  and  _357
REMARK  146  A    between atoms: _357  and  _358
REMARK  147  A    between atoms: _357  and  _360
REMARK  148  A    between atoms: _360  and  _361
REMARK  149  A    between atoms: _364  and  _366
REMARK  150  A    between atoms: _366  and  _367
REMARK  151  A    between atoms: _366  and  _369
REMARK  152  A    between atoms: _369  and  _370
REMARK  153  A    between atoms: _370  and  _372
REMARK  154  A    between atoms: _373  and  _375
REMARK  155  A    between atoms: _375  and  _376
REMARK  156  A    between atoms: _375  and  _378
REMARK  157  A    between atoms: _378  and  _379
REMARK  158  A    between atoms: _382  and  _384
REMARK  159  A    between atoms: _384  and  _385
REMARK  160  A    between atoms: _384  and  _387
REMARK  161  A    between atoms: _390  and  _392
REMARK  162  A    between atoms: _392  and  _393
REMARK  163  A    between atoms: _392  and  _395
REMARK  164  A    between atoms: _395  and  _396
REMARK  165  A    between atoms: _396  and  _397
REMARK  166  A    between atoms: _397  and  _398
REMARK  167  A    between atoms: _398  and  _399
REMARK  168  A    between atoms: _403  and  _405
REMARK  169  A    between atoms: _405  and  _406
REMARK  170  A    between atoms: _405  and  _408
REMARK  171  A    between atoms: _408  and  _409
REMARK  172  A    between atoms: _409  and  _410
REMARK  173  A    between atoms: _412  and  _414
REMARK  174  A    between atoms: _414  and  _415
REMARK  175  A    between atoms: _414  and  _417
REMARK  176  A    between atoms: _417  and  _418
REMARK  177  A    between atoms: _421  and  _423
REMARK  178  A    between atoms: _423  and  _424
REMARK  179  A    between atoms: _426  and  _428
REMARK  180  A    between atoms: _428  and  _429
REMARK  181  A    between atoms: _431  and  _433
REMARK  182  A    between atoms: _433  and  _434
REMARK  183  A    between atoms: _433  and  _436
REMARK  184  A    between atoms: _436  and  _437
REMARK  185  A    between atoms: _440  and  _442
REMARK  186  A    between atoms: _442  and  _443
REMARK  187  A    between atoms: _445  and  _447
REMARK  188  A    between atoms: _447  and  _448
REMARK  189  A    between atoms: _450  and  _452
REMARK  190  A    between atoms: _452  and  _453
REMARK  191  A    between atoms: _452  and  _455
REMARK  192  A    between atoms: _455  and  _456
REMARK  193  A    between atoms: _459  and  _461
REMARK  194  A    between atoms: _461  and  _462
REMARK  195  A    between atoms: _461  and  _464
REMARK  196  A    between atoms: _464  and  _465
REMARK  197  A    between atoms: _468  and  _470
REMARK  198  A    between atoms: _470  and  _471
REMARK  199  A    between atoms: _470  and  _473
REMARK  200  A    between atoms: _473  and  _474
REMARK  201  A    between atoms: _478  and  _479
REMARK  202  A    between atoms: _484  and  _486
REMARK  203  A    between atoms: _486  and  _487
REMARK  204  A    between atoms: _486  and  _489
REMARK  205  A    between atoms: _492  and  _494
REMARK  206  A    between atoms: _494  and  _495
REMARK  207  A    between atoms: _494  and  _497
REMARK  208  A    between atoms: _497  and  _498
REMARK  209  A    between atoms: _503  and  _505
REMARK  210  A    between atoms: _505  and  _506
REMARK  211  A    between atoms: _505  and  _508
REMARK  212  A    between atoms: _508  and  _509
REMARK  213  A    between atoms: _512  and  _514
REMARK  214  A    between atoms: _514  and  _515
REMARK  215  A    between atoms: _514  and  _517
REMARK  216  A    between atoms: _517  and  _518
REMARK  217  A    between atoms: _521  and  _523
REMARK  218  A    between atoms: _523  and  _524
REMARK  219  A    between atoms: _526  and  _528
REMARK  220  A    between atoms: _528  and  _529
REMARK  221  A    between atoms: _528  and  _531
REMARK  222  A    between atoms: _531  and  _532
REMARK  223  A    between atoms: _532  and  _533
REMARK  224  A    between atoms: _533  and  _534
REMARK  225  A    between atoms: _543  and  _545
REMARK  226  A    between atoms: _545  and  _546
REMARK  227  A    between atoms: _545  and  _548
REMARK  228  A    between atoms: _548  and  _549
REMARK                            x       y       z     vdW  Elec       q    Type
REMARK                         _______ _______ _______ _____ _____    ______ ____
ROOT
ATOM      1  O   HOH     1     -10.169   6.294  28.938  0.00  0.00    +0.000 OA
ENDROOT
TORSDOF 0
REMARK  Name = ../refined-set-2016/4ll3/4ll3_pocket.pdb
REMARK  228 active torsions:
REMARK  status: ('A' for Active; 'I' for Inactive)
REMARK    1  A    between atoms: _1  and  _3
REMARK    2  A    between atoms: _3  and  _4
REMARK    3  A    between atoms: _3  and  _6
REMARK    4  A    between atoms: _6  and  _7
REMARK    5  A    between atoms: _7  and  _8
REMARK    6  A    between atoms: _8  and  _9
REMARK    7  A    between atoms: _18  and  _20
REMARK    8  A    between atoms: _20  and  _21
REMARK    9  A    between atoms: _20  and  _23
REMARK   10  A    between atoms: _23  and  _24
REMARK   11  A    between atoms: _27  and  _29
REMARK   12  A    between atoms: _29  and  _30
REMARK   13  A    between atoms: _29  and  _32
REMARK   14  A    between atoms: _32  and  _33
REMARK   15  A    between atoms: _36  and  _38
REMARK   16  A    between atoms: _38  and  _39
REMARK   17  A    between atoms: _38  and  _41
REMARK   18  A    between atoms: _41  and  _42
REMARK   19  A    between atoms: _45  and  _47
REMARK   20  A    between atoms: _47  and  _48
REMARK   21  A    between atoms: _47  and  _50
REMARK   22  A    between atoms: _50  and  _51
REMARK   23  A    between atoms: _54  and  _56
REMARK   24  A    between atoms: _56  and  _57
REMARK   25  A    between atoms: _59  and  _61
REMARK   26  A    between atoms: _61  and  _62
REMARK   27  A    between atoms: _65  and  _67
REMARK   28  A    between atoms: _67  and  _68
REMARK   29  A    between atoms: _67  and  _70
REMARK   30  A    between atoms: _70  and  _71
REMARK   31  A    between atoms: _74  and  _76
REMARK   32  A    between atoms: _76  and  _77
REMARK   33  A    between atoms: _76  and  _79
REMARK   34  A    between atoms: _79  and  _80
REMARK   35  A    between atoms: _80  and  _82
REMARK   36  A    between atoms: _83  and  _85
REMARK   37  A    between atoms: _85  and  _86
REMARK   38  A    between atoms: _85  and  _88
REMARK   39  A    between atoms: _88  and  _89
REMARK   40  A    between atoms: _92  and  _94
REMARK   41  A    between atoms: _94  and  _95
REMARK   42  A    between atoms: _94  and  _97
REMARK   43  A    between atoms: _100  and  _102
REMARK   44  A    between atoms: _102  and  _103
REMARK   45  A    between atoms: _102  and  _105
REMARK   46  A    between atoms: _105  and  _106
REMARK   47  A    between atoms: _106  and  _107
REMARK   48  A    between atoms: _107  and  _108
REMARK   49  A    between atoms: _108  and  _109
REMARK   50  A    between atoms: _113  and  _115
REMARK   51  A    between atoms: _115  and  _116
REMARK   52  A    between atoms: _115  and  _118
REMARK   53  A    between atoms: _118  and  _119
REMARK   54  A    between atoms: _119  and  _120
REMARK   55  A    between atoms: _122  and  _124
REMARK   56  A    between atoms: _124  and  _125
REMARK   57  A    between atoms: _124  and  _127
REMARK   58  A    between atoms: _127  and  _128
REMARK   59  A    between atoms: _131  and  _133
REMARK   60  A    between atoms: _133  and  _134
REMARK   61  A    between atoms: _136  and  _138
REMARK   62  A    between atoms: _138  and  _139
REMARK   63  A    between atoms: _141  and  _143
REMARK   64  A    between atoms: _143  and  _144
REMARK   65  A    between atoms: _143  and  _146
REMARK   66  A    between atoms: _146  and  _147
REMARK   67  A    between atoms: _150  and  _152
REMARK   68  A    between atoms: _152  and  _153
REMARK   69  A    between atoms: _155  and  _157
REMARK   70  A    between atoms: _157  and  _158
REMARK   71  A    between atoms: _160  and  _162
REMARK   72  A    between atoms: _162  and  _163
REMARK   73  A    between atoms: _162  and  _165
REMARK   74  A    between atoms: _165  and  _166
REMARK   75  A    between atoms: _172  and  _174
REMARK   76  A    between atoms: _174  and  _175
REMARK   77  A    between atoms: _174  and  _177
REMARK   78  A    between atoms: _177  and  _178
REMARK   79  A    between atoms: _181  and  _183
REMARK   80  A    between atoms: _183  and  _184
REMARK   81  A    between atoms: _183  and  _186
REMARK   82  A    between atoms: _189  and  _191
REMARK   83  A    between atoms: _191  and  _192
REMARK   84  A    between atoms: _191  and  _194
REMARK   85  A    between atoms: _194  and  _195
REMARK   86  A    between atoms: _199  and  _200
REMARK   87  A    between atoms: _205  and  _207
REMARK   88  A    between atoms: _207  and  _208
REMARK   89  A    between atoms: _207  and  _210
REMARK   90  A    between atoms: _210  and  _211
REMARK   91  A    between atoms: _215  and  _216
REMARK   92  A    between atoms: _221  and  _223
REMARK   93  A    between atoms: _223  and  _224
REMARK   94  A    between atoms: _223  and  _226
REMARK   95  A    between atoms: _229  and  _231
REMARK   96  A    between atoms: _231  and  _232
REMARK   97  A    between atoms: _231  and  _234
REMARK   98  A    between atoms: _234  and  _235
REMARK   99  A    between atoms: _240  and  _242
REMARK  100  A    between atoms: _242  and  _243
REMARK  101  A    between atoms: _242  and  _245
REMARK  102  A    between atoms: _245  and  _246
REMARK  103  A    between atoms: _249  and  _251
REMARK  104  A    between atoms: _251  and  _252
REMARK  105  A    between atoms: _251  and  _254
REMARK  106  A    between atoms: _254  and  _255
REMARK  107  A    between atoms: _258  and  _260
REMARK  108  A    between atoms: _260  and  _261
REMARK  109  A    between atoms: _263  and  _265
REMARK  110  A    between atoms: _265  and  _266
REMARK  111  A    between atoms: _265  and  _268
REMARK  112  A    between atoms: _268  and  _269
REMARK  113  A    between atoms: _269  and  _270
REMARK  114  A    between atoms: _270  and  _271
REMARK  115  A    between atoms: _280  and  _282
REMARK  116  A    between atoms: _282  and  _283
REMARK  117  A    between atoms: _282  and  _285
REMARK  118  A    between atoms: _285  and  _286
REMARK  119  A    between atoms: _291  and  _293
REMARK  120  A    between atoms: _293  and  _294
REMARK  121  A    between atoms: _293  and  _296
REMARK  122  A    between atoms: _296  and  _297
REMARK  123  A    between atoms: _297  and  _298
REMARK  124  A    between atoms: _298  and  _299
REMARK  125  A    between atoms: _308  and  _310
REMARK  126  A    between atoms: _310  and  _311
REMARK  127  A    between atoms: _310  and  _313
REMARK  128  A    between atoms: _313  and  _314
REMARK  129  A    between atoms: _317  and  _319
REMARK  130  A    between atoms: _319  and  _320
REMARK  131  A    between atoms: _319  and  _322
REMARK  132  A    between atoms: _322  and  _323
REMARK  133  A    between atoms: _326  and  _328
REMARK  134  A    between atoms: _328  and  _329
REMARK  135  A    between atoms: _328  and  _331
REMARK  136  A    between atoms: _331  and  _332
REMARK  137  A    between atoms: _335  and  _337
REMARK  138  A    between atoms: _337  and  _338
REMARK  139  A    between atoms: _337  and  _340
REMARK  140  A    between atoms: _340  and  _341
REMARK  141  A    between atoms: _344  and  _346
REMARK  142  A    between atoms: _346  and  _347
REMARK  143  A    between atoms: _349  and  _351
REMARK  144  A    between atoms: _351  and  _352
REMARK  145  A    between atoms: _355  and  _357
REMARK  146  A    between atoms: _357  and  _358
REMARK  147  A    between atoms: _357  and  _360
REMARK  148  A    between atoms: _360  and  _361
REMARK  149  A    between atoms: _364  and  _366
REMARK  150  A    between atoms: _366  and  _367
REMARK  151  A    between atoms: _366  and  _369
REMARK  152  A    between atoms: _369  and  _370
REMARK  153  A    between atoms: _370  and  _372
REMARK  154  A    between atoms: _373  and  _375
REMARK  155  A    between atoms: _375  and  _376
REMARK  156  A    between atoms: _375  and  _378
REMARK  157  A    between atoms: _378  and  _379
REMARK  158  A    between atoms: _382  and  _384
REMARK  159  A    between atoms: _384  and  _385
REMARK  160  A    between atoms: _384  and  _387
REMARK  161  A    between atoms: _390  and  _392
REMARK  162  A    between atoms: _392  and  _393
REMARK  163  A    between atoms: _392  and  _395
REMARK  164  A    between atoms: _395  and  _396
REMARK  165  A    between atoms: _396  and  _397
REMARK  166  A    between atoms: _397  and  _398
REMARK  167  A    between atoms: _398  and  _399
REMARK  168  A    between atoms: _403  and  _405
REMARK  169  A    between atoms: _405  and  _406
REMARK  170  A    between atoms: _405  and  _408
REMARK  171  A    between atoms: _408  and  _409
REMARK  172  A    between atoms: _409  and  _410
REMARK  173  A    between atoms: _412  and  _414
REMARK  174  A    between atoms: _414  and  _415
REMARK  175  A    between atoms: _414  and  _417
REMARK  176  A    between atoms: _417  and  _418
REMARK  177  A    between atoms: _421  and  _423
REMARK  178  A    between atoms: _423  and  _424
REMARK  179  A    between atoms: _426  and  _428
REMARK  180  A    between atoms: _428  and  _429
REMARK  181  A    between atoms: _431  and  _433
REMARK  182  A    between atoms: _433  and  _434
REMARK  183  A    between atoms: _433  and  _436
REMARK  184  A    between atoms: _436  and  _437
REMARK  185  A    between atoms: _440  and  _442
REMARK  186  A    between atoms: _442  and  _443
REMARK  187  A    between atoms: _445  and  _447
REMARK  188  A    between atoms: _447  and  _448
REMARK  189  A    between atoms: _450  and  _452
REMARK  190  A    between atoms: _452  and  _453
REMARK  191  A    between atoms: _452  and  _455
REMARK  192  A    between atoms: _455  and  _456
REMARK  193  A    between atoms: _459  and  _461
REMARK  194  A    between atoms: _461  and  _462
REMARK  195  A    between atoms: _461  and  _464
REMARK  196  A    between atoms: _464  and  _465
REMARK  197  A    between atoms: _468  and  _470
REMARK  198  A    between atoms: _470  and  _471
REMARK  199  A    between atoms: _470  and  _473
REMARK  200  A    between atoms: _473  and  _474
REMARK  201  A    between atoms: _478  and  _479
REMARK  202  A    between atoms: _484  and  _486
REMARK  203  A    between atoms: _486  and  _487
REMARK  204  A    between atoms: _486  and  _489
REMARK  205  A    between atoms: _492  and  _494
REMARK  206  A    between atoms: _494  and  _495
REMARK  207  A    between atoms: _494  and  _497
REMARK  208  A    between atoms: _497  and  _498
REMARK  209  A    between atoms: _503  and  _505
REMARK  210  A    between atoms: _505  and  _506
REMARK  211  A    between atoms: _505  and  _508
REMARK  212  A    between atoms: _508  and  _509
REMARK  213  A    between atoms: _512  and  _514
REMARK  214  A    between atoms: _514  and  _515
REMARK  215  A    between atoms: _514  and  _517
REMARK  216  A    between atoms: _517  and  _518
REMARK  217  A    between atoms: _521  and  _523
REMARK  218  A    between atoms: _523  and  _524
REMARK  219  A    between atoms: _526  and  _528
REMARK  220  A    between atoms: _528  and  _529
REMARK  221  A    between atoms: _528  and  _531
REMARK  222  A    between atoms: _531  and  _532
REMARK  223  A    between atoms: _532  and  _533
REMARK  224  A    between atoms: _533  and  _534
REMARK  225  A    between atoms: _543  and  _545
REMARK  226  A    between atoms: _545  and  _546
REMARK  227  A    between atoms: _545  and  _548
REMARK  228  A    between atoms: _548  and  _549
REMARK                            x       y       z     vdW  Elec       q    Type
REMARK                         _______ _______ _______ _____ _____    ______ ____
ROOT
ATOM      1  O   HOH     1     -15.532  19.244  37.938  0.00  0.00    +0.000 OA
ENDROOT
TORSDOF 0
REMARK  Name = ../refined-set-2016/4ll3/4ll3_pocket.pdb
REMARK  228 active torsions:
REMARK  status: ('A' for Active; 'I' for Inactive)
REMARK    1  A    between atoms: _1  and  _3
REMARK    2  A    between atoms: _3  and  _4
REMARK    3  A    between atoms: _3  and  _6
REMARK    4  A    between atoms: _6  and  _7
REMARK    5  A    between atoms: _7  and  _8
REMARK    6  A    between atoms: _8  and  _9
REMARK    7  A    between atoms: _18  and  _20
REMARK    8  A    between atoms: _20  and  _21
REMARK    9  A    between atoms: _20  and  _23
REMARK   10  A    between atoms: _23  and  _24
REMARK   11  A    between atoms: _27  and  _29
REMARK   12  A    between atoms: _29  and  _30
REMARK   13  A    between atoms: _29  and  _32
REMARK   14  A    between atoms: _32  and  _33
REMARK   15  A    between atoms: _36  and  _38
REMARK   16  A    between atoms: _38  and  _39
REMARK   17  A    between atoms: _38  and  _41
REMARK   18  A    between atoms: _41  and  _42
REMARK   19  A    between atoms: _45  and  _47
REMARK   20  A    between atoms: _47  and  _48
REMARK   21  A    between atoms: _47  and  _50
REMARK   22  A    between atoms: _50  and  _51
REMARK   23  A    between atoms: _54  and  _56
REMARK   24  A    between atoms: _56  and  _57
REMARK   25  A    between atoms: _59  and  _61
REMARK   26  A    between atoms: _61  and  _62
REMARK   27  A    between atoms: _65  and  _67
REMARK   28  A    between atoms: _67  and  _68
REMARK   29  A    between atoms: _67  and  _70
REMARK   30  A    between atoms: _70  and  _71
REMARK   31  A    between atoms: _74  and  _76
REMARK   32  A    between atoms: _76  and  _77
REMARK   33  A    between atoms: _76  and  _79
REMARK   34  A    between atoms: _79  and  _80
REMARK   35  A    between atoms: _80  and  _82
REMARK   36  A    between atoms: _83  and  _85
REMARK   37  A    between atoms: _85  and  _86
REMARK   38  A    between atoms: _85  and  _88
REMARK   39  A    between atoms: _88  and  _89
REMARK   40  A    between atoms: _92  and  _94
REMARK   41  A    between atoms: _94  and  _95
REMARK   42  A    between atoms: _94  and  _97
REMARK   43  A    between atoms: _100  and  _102
REMARK   44  A    between atoms: _102  and  _103
REMARK   45  A    between atoms: _102  and  _105
REMARK   46  A    between atoms: _105  and  _106
REMARK   47  A    between atoms: _106  and  _107
REMARK   48  A    between atoms: _107  and  _108
REMARK   49  A    between atoms: _108  and  _109
REMARK   50  A    between atoms: _113  and  _115
REMARK   51  A    between atoms: _115  and  _116
REMARK   52  A    between atoms: _115  and  _118
REMARK   53  A    between atoms: _118  and  _119
REMARK   54  A    between atoms: _119  and  _120
REMARK   55  A    between atoms: _122  and  _124
REMARK   56  A    between atoms: _124  and  _125
REMARK   57  A    between atoms: _124  and  _127
REMARK   58  A    between atoms: _127  and  _128
REMARK   59  A    between atoms: _131  and  _133
REMARK   60  A    between atoms: _133  and  _134
REMARK   61  A    between atoms: _136  and  _138
REMARK   62  A    between atoms: _138  and  _139
REMARK   63  A    between atoms: _141  and  _143
REMARK   64  A    between atoms: _143  and  _144
REMARK   65  A    between atoms: _143  and  _146
REMARK   66  A    between atoms: _146  and  _147
REMARK   67  A    between atoms: _150  and  _152
REMARK   68  A    between atoms: _152  and  _153
REMARK   69  A    between atoms: _155  and  _157
REMARK   70  A    between atoms: _157  and  _158
REMARK   71  A    between atoms: _160  and  _162
REMARK   72  A    between atoms: _162  and  _163
REMARK   73  A    between atoms: _162  and  _165
REMARK   74  A    between atoms: _165  and  _166
REMARK   75  A    between atoms: _172  and  _174
REMARK   76  A    between atoms: _174  and  _175
REMARK   77  A    between atoms: _174  and  _177
REMARK   78  A    between atoms: _177  and  _178
REMARK   79  A    between atoms: _181  and  _183
REMARK   80  A    between atoms: _183  and  _184
REMARK   81  A    between atoms: _183  and  _186
REMARK   82  A    between atoms: _189  and  _191
REMARK   83  A    between atoms: _191  and  _192
REMARK   84  A    between atoms: _191  and  _194
REMARK   85  A    between atoms: _194  and  _195
REMARK   86  A    between atoms: _199  and  _200
REMARK   87  A    between atoms: _205  and  _207
REMARK   88  A    between atoms: _207  and  _208
REMARK   89  A    between atoms: _207  and  _210
REMARK   90  A    between atoms: _210  and  _211
REMARK   91  A    between atoms: _215  and  _216
REMARK   92  A    between atoms: _221  and  _223
REMARK   93  A    between atoms: _223  and  _224
REMARK   94  A    between atoms: _223  and  _226
REMARK   95  A    between atoms: _229  and  _231
REMARK   96  A    between atoms: _231  and  _232
REMARK   97  A    between atoms: _231  and  _234
REMARK   98  A    between atoms: _234  and  _235
REMARK   99  A    between atoms: _240  and  _242
REMARK  100  A    between atoms: _242  and  _243
REMARK  101  A    between atoms: _242  and  _245
REMARK  102  A    between atoms: _245  and  _246
REMARK  103  A    between atoms: _249  and  _251
REMARK  104  A    between atoms: _251  and  _252
REMARK  105  A    between atoms: _251  and  _254
REMARK  106  A    between atoms: _254  and  _255
REMARK  107  A    between atoms: _258  and  _260
REMARK  108  A    between atoms: _260  and  _261
REMARK  109  A    between atoms: _263  and  _265
REMARK  110  A    between atoms: _265  and  _266
REMARK  111  A    between atoms: _265  and  _268
REMARK  112  A    between atoms: _268  and  _269
REMARK  113  A    between atoms: _269  and  _270
REMARK  114  A    between atoms: _270  and  _271
REMARK  115  A    between atoms: _280  and  _282
REMARK  116  A    between atoms: _282  and  _283
REMARK  117  A    between atoms: _282  and  _285
REMARK  118  A    between atoms: _285  and  _286
REMARK  119  A    between atoms: _291  and  _293
REMARK  120  A    between atoms: _293  and  _294
REMARK  121  A    between atoms: _293  and  _296
REMARK  122  A    between atoms: _296  and  _297
REMARK  123  A    between atoms: _297  and  _298
REMARK  124  A    between atoms: _298  and  _299
REMARK  125  A    between atoms: _308  and  _310
REMARK  126  A    between atoms: _310  and  _311
REMARK  127  A    between atoms: _310  and  _313
REMARK  128  A    between atoms: _313  and  _314
REMARK  129  A    between atoms: _317  and  _319
REMARK  130  A    between atoms: _319  and  _320
REMARK  131  A    between atoms: _319  and  _322
REMARK  132  A    between atoms: _322  and  _323
REMARK  133  A    between atoms: _326  and  _328
REMARK  134  A    between atoms: _328  and  _329
REMARK  135  A    between atoms: _328  and  _331
REMARK  136  A    between atoms: _331  and  _332
REMARK  137  A    between atoms: _335  and  _337
REMARK  138  A    between atoms: _337  and  _338
REMARK  139  A    between atoms: _337  and  _340
REMARK  140  A    between atoms: _340  and  _341
REMARK  141  A    between atoms: _344  and  _346
REMARK  142  A    between atoms: _346  and  _347
REMARK  143  A    between atoms: _349  and  _351
REMARK  144  A    between atoms: _351  and  _352
REMARK  145  A    between atoms: _355  and  _357
REMARK  146  A    between atoms: _357  and  _358
REMARK  147  A    between atoms: _357  and  _360
REMARK  148  A    between atoms: _360  and  _361
REMARK  149  A    between atoms: _364  and  _366
REMARK  150  A    between atoms: _366  and  _367
REMARK  151  A    between atoms: _366  and  _369
REMARK  152  A    between atoms: _369  and  _370
REMARK  153  A    between atoms: _370  and  _372
REMARK  154  A    between atoms: _373  and  _375
REMARK  155  A    between atoms: _375  and  _376
REMARK  156  A    between atoms: _375  and  _378
REMARK  157  A    between atoms: _378  and  _379
REMARK  158  A    between atoms: _382  and  _384
REMARK  159  A    between atoms: _384  and  _385
REMARK  160  A    between atoms: _384  and  _387
REMARK  161  A    between atoms: _390  and  _392
REMARK  162  A    between atoms: _392  and  _393
REMARK  163  A    between atoms: _392  and  _395
REMARK  164  A    between atoms: _395  and  _396
REMARK  165  A    between atoms: _396  and  _397
REMARK  166  A    between atoms: _397  and  _398
REMARK  167  A    between atoms: _398  and  _399
REMARK  168  A    between atoms: _403  and  _405
REMARK  169  A    between atoms: _405  and  _406
REMARK  170  A    between atoms: _405  and  _408
REMARK  171  A    between atoms: _408  and  _409
REMARK  172  A    between atoms: _409  and  _410
REMARK  173  A    between atoms: _412  and  _414
REMARK  174  A    between atoms: _414  and  _415
REMARK  175  A    between atoms: _414  and  _417
REMARK  176  A    between atoms: _417  and  _418
REMARK  177  A    between atoms: _421  and  _423
REMARK  178  A    between atoms: _423  and  _424
REMARK  179  A    between atoms: _426  and  _428
REMARK  180  A    between atoms: _428  and  _429
REMARK  181  A    between atoms: _431  and  _433
REMARK  182  A    between atoms: _433  and  _434
REMARK  183  A    between atoms: _433  and  _436
REMARK  184  A    between atoms: _436  and  _437
REMARK  185  A    between atoms: _440  and  _442
REMARK  186  A    between atoms: _442  and  _443
REMARK  187  A    between atoms: _445  and  _447
REMARK  188  A    between atoms: _447  and  _448
REMARK  189  A    between atoms: _450  and  _452
REMARK  190  A    between atoms: _452  and  _453
REMARK  191  A    between atoms: _452  and  _455
REMARK  192  A    between atoms: _455  and  _456
REMARK  193  A    between atoms: _459  and  _461
REMARK  194  A    between atoms: _461  and  _462
REMARK  195  A    between atoms: _461  and  _464
REMARK  196  A    between atoms: _464  and  _465
REMARK  197  A    between atoms: _468  and  _470
REMARK  198  A    between atoms: _470  and  _471
REMARK  199  A    between atoms: _470  and  _473
REMARK  200  A    between atoms: _473  and  _474
REMARK  201  A    between atoms: _478  and  _479
REMARK  202  A    between atoms: _484  and  _486
REMARK  203  A    between atoms: _486  and  _487
REMARK  204  A    between atoms: _486  and  _489
REMARK  205  A    between atoms: _492  and  _494
REMARK  206  A    between atoms: _494  and  _495
REMARK  207  A    between atoms: _494  and  _497
REMARK  208  A    between atoms: _497  and  _498
REMARK  209  A    between atoms: _503  and  _505
REMARK  210  A    between atoms: _505  and  _506
REMARK  211  A    between atoms: _505  and  _508
REMARK  212  A    between atoms: _508  and  _509
REMARK  213  A    between atoms: _512  and  _514
REMARK  214  A    between atoms: _514  and  _515
REMARK  215  A    between atoms: _514  and  _517
REMARK  216  A    between atoms: _517  and  _518
REMARK  217  A    between atoms: _521  and  _523
REMARK  218  A    between atoms: _523  and  _524
REMARK  219  A    between atoms: _526  and  _528
REMARK  220  A    between atoms: _528  and  _529
REMARK  221  A    between atoms: _528  and  _531
REMARK  222  A    between atoms: _531  and  _532
REMARK  223  A    between atoms: _532  and  _533
REMARK  224  A    between atoms: _533  and  _534
REMARK  225  A    between atoms: _543  and  _545
REMARK  226  A    between atoms: _545  and  _546
REMARK  227  A    between atoms: _545  and  _548
REMARK  228  A    between atoms: _548  and  _549
REMARK                            x       y       z     vdW  Elec       q    Type
REMARK                         _______ _______ _______ _____ _____    ______ ____
ROOT
ATOM      1  O   HOH     1     -16.497  18.773  31.173  0.00  0.00    +0.000 OA
ENDROOT
TORSDOF 0
REMARK  Name = ../refined-set-2016/4ll3/4ll3_pocket.pdb
REMARK  228 active torsions:
REMARK  status: ('A' for Active; 'I' for Inactive)
REMARK    1  A    between atoms: _1  and  _3
REMARK    2  A    between atoms: _3  and  _4
REMARK    3  A    between atoms: _3  and  _6
REMARK    4  A    between atoms: _6  and  _7
REMARK    5  A    between atoms: _7  and  _8
REMARK    6  A    between atoms: _8  and  _9
REMARK    7  A    between atoms: _18  and  _20
REMARK    8  A    between atoms: _20  and  _21
REMARK    9  A    between atoms: _20  and  _23
REMARK   10  A    between atoms: _23  and  _24
REMARK   11  A    between atoms: _27  and  _29
REMARK   12  A    between atoms: _29  and  _30
REMARK   13  A    between atoms: _29  and  _32
REMARK   14  A    between atoms: _32  and  _33
REMARK   15  A    between atoms: _36  and  _38
REMARK   16  A    between atoms: _38  and  _39
REMARK   17  A    between atoms: _38  and  _41
REMARK   18  A    between atoms: _41  and  _42
REMARK   19  A    between atoms: _45  and  _47
REMARK   20  A    between atoms: _47  and  _48
REMARK   21  A    between atoms: _47  and  _50
REMARK   22  A    between atoms: _50  and  _51
REMARK   23  A    between atoms: _54  and  _56
REMARK   24  A    between atoms: _56  and  _57
REMARK   25  A    between atoms: _59  and  _61
REMARK   26  A    between atoms: _61  and  _62
REMARK   27  A    between atoms: _65  and  _67
REMARK   28  A    between atoms: _67  and  _68
REMARK   29  A    between atoms: _67  and  _70
REMARK   30  A    between atoms: _70  and  _71
REMARK   31  A    between atoms: _74  and  _76
REMARK   32  A    between atoms: _76  and  _77
REMARK   33  A    between atoms: _76  and  _79
REMARK   34  A    between atoms: _79  and  _80
REMARK   35  A    between atoms: _80  and  _82
REMARK   36  A    between atoms: _83  and  _85
REMARK   37  A    between atoms: _85  and  _86
REMARK   38  A    between atoms: _85  and  _88
REMARK   39  A    between atoms: _88  and  _89
REMARK   40  A    between atoms: _92  and  _94
REMARK   41  A    between atoms: _94  and  _95
REMARK   42  A    between atoms: _94  and  _97
REMARK   43  A    between atoms: _100  and  _102
REMARK   44  A    between atoms: _102  and  _103
REMARK   45  A    between atoms: _102  and  _105
REMARK   46  A    between atoms: _105  and  _106
REMARK   47  A    between atoms: _106  and  _107
REMARK   48  A    between atoms: _107  and  _108
REMARK   49  A    between atoms: _108  and  _109
REMARK   50  A    between atoms: _113  and  _115
REMARK   51  A    between atoms: _115  and  _116
REMARK   52  A    between atoms: _115  and  _118
REMARK   53  A    between atoms: _118  and  _119
REMARK   54  A    between atoms: _119  and  _120
REMARK   55  A    between atoms: _122  and  _124
REMARK   56  A    between atoms: _124  and  _125
REMARK   57  A    between atoms: _124  and  _127
REMARK   58  A    between atoms: _127  and  _128
REMARK   59  A    between atoms: _131  and  _133
REMARK   60  A    between atoms: _133  and  _134
REMARK   61  A    between atoms: _136  and  _138
REMARK   62  A    between atoms: _138  and  _139
REMARK   63  A    between atoms: _141  and  _143
REMARK   64  A    between atoms: _143  and  _144
REMARK   65  A    between atoms: _143  and  _146
REMARK   66  A    between atoms: _146  and  _147
REMARK   67  A    between atoms: _150  and  _152
REMARK   68  A    between atoms: _152  and  _153
REMARK   69  A    between atoms: _155  and  _157
REMARK   70  A    between atoms: _157  and  _158
REMARK   71  A    between atoms: _160  and  _162
REMARK   72  A    between atoms: _162  and  _163
REMARK   73  A    between atoms: _162  and  _165
REMARK   74  A    between atoms: _165  and  _166
REMARK   75  A    between atoms: _172  and  _174
REMARK   76  A    between atoms: _174  and  _175
REMARK   77  A    between atoms: _174  and  _177
REMARK   78  A    between atoms: _177  and  _178
REMARK   79  A    between atoms: _181  and  _183
REMARK   80  A    between atoms: _183  and  _184
REMARK   81  A    between atoms: _183  and  _186
REMARK   82  A    between atoms: _189  and  _191
REMARK   83  A    between atoms: _191  and  _192
REMARK   84  A    between atoms: _191  and  _194
REMARK   85  A    between atoms: _194  and  _195
REMARK   86  A    between atoms: _199  and  _200
REMARK   87  A    between atoms: _205  and  _207
REMARK   88  A    between atoms: _207  and  _208
REMARK   89  A    between atoms: _207  and  _210
REMARK   90  A    between atoms: _210  and  _211
REMARK   91  A    between atoms: _215  and  _216
REMARK   92  A    between atoms: _221  and  _223
REMARK   93  A    between atoms: _223  and  _224
REMARK   94  A    between atoms: _223  and  _226
REMARK   95  A    between atoms: _229  and  _231
REMARK   96  A    between atoms: _231  and  _232
REMARK   97  A    between atoms: _231  and  _234
REMARK   98  A    between atoms: _234  and  _235
REMARK   99  A    between atoms: _240  and  _242
REMARK  100  A    between atoms: _242  and  _243
REMARK  101  A    between atoms: _242  and  _245
REMARK  102  A    between atoms: _245  and  _246
REMARK  103  A    between atoms: _249  and  _251
REMARK  104  A    between atoms: _251  and  _252
REMARK  105  A    between atoms: _251  and  _254
REMARK  106  A    between atoms: _254  and  _255
REMARK  107  A    between atoms: _258  and  _260
REMARK  108  A    between atoms: _260  and  _261
REMARK  109  A    between atoms: _263  and  _265
REMARK  110  A    between atoms: _265  and  _266
REMARK  111  A    between atoms: _265  and  _268
REMARK  112  A    between atoms: _268  and  _269
REMARK  113  A    between atoms: _269  and  _270
REMARK  114  A    between atoms: _270  and  _271
REMARK  115  A    between atoms: _280  and  _282
REMARK  116  A    between atoms: _282  and  _283
REMARK  117  A    between atoms: _282  and  _285
REMARK  118  A    between atoms: _285  and  _286
REMARK  119  A    between atoms: _291  and  _293
REMARK  120  A    between atoms: _293  and  _294
REMARK  121  A    between atoms: _293  and  _296
REMARK  122  A    between atoms: _296  and  _297
REMARK  123  A    between atoms: _297  and  _298
REMARK  124  A    between atoms: _298  and  _299
REMARK  125  A    between atoms: _308  and  _310
REMARK  126  A    between atoms: _310  and  _311
REMARK  127  A    between atoms: _310  and  _313
REMARK  128  A    between atoms: _313  and  _314
REMARK  129  A    between atoms: _317  and  _319
REMARK  130  A    between atoms: _319  and  _320
REMARK  131  A    between atoms: _319  and  _322
REMARK  132  A    between atoms: _322  and  _323
REMARK  133  A    between atoms: _326  and  _328
REMARK  134  A    between atoms: _328  and  _329
REMARK  135  A    between atoms: _328  and  _331
REMARK  136  A    between atoms: _331  and  _332
REMARK  137  A    between atoms: _335  and  _337
REMARK  138  A    between atoms: _337  and  _338
REMARK  139  A    between atoms: _337  and  _340
REMARK  140  A    between atoms: _340  and  _341
REMARK  141  A    between atoms: _344  and  _346
REMARK  142  A    between atoms: _346  and  _347
REMARK  143  A    between atoms: _349  and  _351
REMARK  144  A    between atoms: _351  and  _352
REMARK  145  A    between atoms: _355  and  _357
REMARK  146  A    between atoms: _357  and  _358
REMARK  147  A    between atoms: _357  and  _360
REMARK  148  A    between atoms: _360  and  _361
REMARK  149  A    between atoms: _364  and  _366
REMARK  150  A    between atoms: _366  and  _367
REMARK  151  A    between atoms: _366  and  _369
REMARK  152  A    between atoms: _369  and  _370
REMARK  153  A    between atoms: _370  and  _372
REMARK  154  A    between atoms: _373  and  _375
REMARK  155  A    between atoms: _375  and  _376
REMARK  156  A    between atoms: _375  and  _378
REMARK  157  A    between atoms: _378  and  _379
REMARK  158  A    between atoms: _382  and  _384
REMARK  159  A    between atoms: _384  and  _385
REMARK  160  A    between atoms: _384  and  _387
REMARK  161  A    between atoms: _390  and  _392
REMARK  162  A    between atoms: _392  and  _393
REMARK  163  A    between atoms: _392  and  _395
REMARK  164  A    between atoms: _395  and  _396
REMARK  165  A    between atoms: _396  and  _397
REMARK  166  A    between atoms: _397  and  _398
REMARK  167  A    between atoms: _398  and  _399
REMARK  168  A    between atoms: _403  and  _405
REMARK  169  A    between atoms: _405  and  _406
REMARK  170  A    between atoms: _405  and  _408
REMARK  171  A    between atoms: _408  and  _409
REMARK  172  A    between atoms: _409  and  _410
REMARK  173  A    between atoms: _412  and  _414
REMARK  174  A    between atoms: _414  and  _415
REMARK  175  A    between atoms: _414  and  _417
REMARK  176  A    between atoms: _417  and  _418
REMARK  177  A    between atoms: _421  and  _423
REMARK  178  A    between atoms: _423  and  _424
REMARK  179  A    between atoms: _426  and  _428
REMARK  180  A    between atoms: _428  and  _429
REMARK  181  A    between atoms: _431  and  _433
REMARK  182  A    between atoms: _433  and  _434
REMARK  183  A    between atoms: _433  and  _436
REMARK  184  A    between atoms: _436  and  _437
REMARK  185  A    between atoms: _440  and  _442
REMARK  186  A    between atoms: _442  and  _443
REMARK  187  A    between atoms: _445  and  _447
REMARK  188  A    between atoms: _447  and  _448
REMARK  189  A    between atoms: _450  and  _452
REMARK  190  A    between atoms: _452  and  _453
REMARK  191  A    between atoms: _452  and  _455
REMARK  192  A    between atoms: _455  and  _456
REMARK  193  A    between atoms: _459  and  _461
REMARK  194  A    between atoms: _461  and  _462
REMARK  195  A    between atoms: _461  and  _464
REMARK  196  A    between atoms: _464  and  _465
REMARK  197  A    between atoms: _468  and  _470
REMARK  198  A    between atoms: _470  and  _471
REMARK  199  A    between atoms: _470  and  _473
REMARK  200  A    between atoms: _473  and  _474
REMARK  201  A    between atoms: _478  and  _479
REMARK  202  A    between atoms: _484  and  _486
REMARK  203  A    between atoms: _486  and  _487
REMARK  204  A    between atoms: _486  and  _489
REMARK  205  A    between atoms: _492  and  _494
REMARK  206  A    between atoms: _494  and  _495
REMARK  207  A    between atoms: _494  and  _497
REMARK  208  A    between atoms: _497  and  _498
REMARK  209  A    between atoms: _503  and  _505
REMARK  210  A    between atoms: _505  and  _506
REMARK  211  A    between atoms: _505  and  _508
REMARK  212  A    between atoms: _508  and  _509
REMARK  213  A    between atoms: _512  and  _514
REMARK  214  A    between atoms: _514  and  _515
REMARK  215  A    between atoms: _514  and  _517
REMARK  216  A    between atoms: _517  and  _518
REMARK  217  A    between atoms: _521  and  _523
REMARK  218  A    between atoms: _523  and  _524
REMARK  219  A    between atoms: _526  and  _528
REMARK  220  A    between atoms: _528  and  _529
REMARK  221  A    between atoms: _528  and  _531
REMARK  222  A    between atoms: _531  and  _532
REMARK  223  A    between atoms: _532  and  _533
REMARK  224  A    between atoms: _533  and  _534
REMARK  225  A    between atoms: _543  and  _545
REMARK  226  A    between atoms: _545  and  _546
REMARK  227  A    between atoms: _545  and  _548
REMARK  228  A    between atoms: _548  and  _549
REMARK                            x       y       z     vdW  Elec       q    Type
REMARK                         _______ _______ _______ _____ _____    ______ ____
ROOT
ATOM      1  O   HOH     1     -14.152  15.308  39.379  0.00  0.00    +0.000 OA
ENDROOT
TORSDOF 0
REMARK  Name = ../refined-set-2016/4ll3/4ll3_pocket.pdb
REMARK  228 active torsions:
REMARK  status: ('A' for Active; 'I' for Inactive)
REMARK    1  A    between atoms: _1  and  _3
REMARK    2  A    between atoms: _3  and  _4
REMARK    3  A    between atoms: _3  and  _6
REMARK    4  A    between atoms: _6  and  _7
REMARK    5  A    between atoms: _7  and  _8
REMARK    6  A    between atoms: _8  and  _9
REMARK    7  A    between atoms: _18  and  _20
REMARK    8  A    between atoms: _20  and  _21
REMARK    9  A    between atoms: _20  and  _23
REMARK   10  A    between atoms: _23  and  _24
REMARK   11  A    between atoms: _27  and  _29
REMARK   12  A    between atoms: _29  and  _30
REMARK   13  A    between atoms: _29  and  _32
REMARK   14  A    between atoms: _32  and  _33
REMARK   15  A    between atoms: _36  and  _38
REMARK   16  A    between atoms: _38  and  _39
REMARK   17  A    between atoms: _38  and  _41
REMARK   18  A    between atoms: _41  and  _42
REMARK   19  A    between atoms: _45  and  _47
REMARK   20  A    between atoms: _47  and  _48
REMARK   21  A    between atoms: _47  and  _50
REMARK   22  A    between atoms: _50  and  _51
REMARK   23  A    between atoms: _54  and  _56
REMARK   24  A    between atoms: _56  and  _57
REMARK   25  A    between atoms: _59  and  _61
REMARK   26  A    between atoms: _61  and  _62
REMARK   27  A    between atoms: _65  and  _67
REMARK   28  A    between atoms: _67  and  _68
REMARK   29  A    between atoms: _67  and  _70
REMARK   30  A    between atoms: _70  and  _71
REMARK   31  A    between atoms: _74  and  _76
REMARK   32  A    between atoms: _76  and  _77
REMARK   33  A    between atoms: _76  and  _79
REMARK   34  A    between atoms: _79  and  _80
REMARK   35  A    between atoms: _80  and  _82
REMARK   36  A    between atoms: _83  and  _85
REMARK   37  A    between atoms: _85  and  _86
REMARK   38  A    between atoms: _85  and  _88
REMARK   39  A    between atoms: _88  and  _89
REMARK   40  A    between atoms: _92  and  _94
REMARK   41  A    between atoms: _94  and  _95
REMARK   42  A    between atoms: _94  and  _97
REMARK   43  A    between atoms: _100  and  _102
REMARK   44  A    between atoms: _102  and  _103
REMARK   45  A    between atoms: _102  and  _105
REMARK   46  A    between atoms: _105  and  _106
REMARK   47  A    between atoms: _106  and  _107
REMARK   48  A    between atoms: _107  and  _108
REMARK   49  A    between atoms: _108  and  _109
REMARK   50  A    between atoms: _113  and  _115
REMARK   51  A    between atoms: _115  and  _116
REMARK   52  A    between atoms: _115  and  _118
REMARK   53  A    between atoms: _118  and  _119
REMARK   54  A    between atoms: _119  and  _120
REMARK   55  A    between atoms: _122  and  _124
REMARK   56  A    between atoms: _124  and  _125
REMARK   57  A    between atoms: _124  and  _127
REMARK   58  A    between atoms: _127  and  _128
REMARK   59  A    between atoms: _131  and  _133
REMARK   60  A    between atoms: _133  and  _134
REMARK   61  A    between atoms: _136  and  _138
REMARK   62  A    between atoms: _138  and  _139
REMARK   63  A    between atoms: _141  and  _143
REMARK   64  A    between atoms: _143  and  _144
REMARK   65  A    between atoms: _143  and  _146
REMARK   66  A    between atoms: _146  and  _147
REMARK   67  A    between atoms: _150  and  _152
REMARK   68  A    between atoms: _152  and  _153
REMARK   69  A    between atoms: _155  and  _157
REMARK   70  A    between atoms: _157  and  _158
REMARK   71  A    between atoms: _160  and  _162
REMARK   72  A    between atoms: _162  and  _163
REMARK   73  A    between atoms: _162  and  _165
REMARK   74  A    between atoms: _165  and  _166
REMARK   75  A    between atoms: _172  and  _174
REMARK   76  A    between atoms: _174  and  _175
REMARK   77  A    between atoms: _174  and  _177
REMARK   78  A    between atoms: _177  and  _178
REMARK   79  A    between atoms: _181  and  _183
REMARK   80  A    between atoms: _183  and  _184
REMARK   81  A    between atoms: _183  and  _186
REMARK   82  A    between atoms: _189  and  _191
REMARK   83  A    between atoms: _191  and  _192
REMARK   84  A    between atoms: _191  and  _194
REMARK   85  A    between atoms: _194  and  _195
REMARK   86  A    between atoms: _199  and  _200
REMARK   87  A    between atoms: _205  and  _207
REMARK   88  A    between atoms: _207  and  _208
REMARK   89  A    between atoms: _207  and  _210
REMARK   90  A    between atoms: _210  and  _211
REMARK   91  A    between atoms: _215  and  _216
REMARK   92  A    between atoms: _221  and  _223
REMARK   93  A    between atoms: _223  and  _224
REMARK   94  A    between atoms: _223  and  _226
REMARK   95  A    between atoms: _229  and  _231
REMARK   96  A    between atoms: _231  and  _232
REMARK   97  A    between atoms: _231  and  _234
REMARK   98  A    between atoms: _234  and  _235
REMARK   99  A    between atoms: _240  and  _242
REMARK  100  A    between atoms: _242  and  _243
REMARK  101  A    between atoms: _242  and  _245
REMARK  102  A    between atoms: _245  and  _246
REMARK  103  A    between atoms: _249  and  _251
REMARK  104  A    between atoms: _251  and  _252
REMARK  105  A    between atoms: _251  and  _254
REMARK  106  A    between atoms: _254  and  _255
REMARK  107  A    between atoms: _258  and  _260
REMARK  108  A    between atoms: _260  and  _261
REMARK  109  A    between atoms: _263  and  _265
REMARK  110  A    between atoms: _265  and  _266
REMARK  111  A    between atoms: _265  and  _268
REMARK  112  A    between atoms: _268  and  _269
REMARK  113  A    between atoms: _269  and  _270
REMARK  114  A    between atoms: _270  and  _271
REMARK  115  A    between atoms: _280  and  _282
REMARK  116  A    between atoms: _282  and  _283
REMARK  117  A    between atoms: _282  and  _285
REMARK  118  A    between atoms: _285  and  _286
REMARK  119  A    between atoms: _291  and  _293
REMARK  120  A    between atoms: _293  and  _294
REMARK  121  A    between atoms: _293  and  _296
REMARK  122  A    between atoms: _296  and  _297
REMARK  123  A    between atoms: _297  and  _298
REMARK  124  A    between atoms: _298  and  _299
REMARK  125  A    between atoms: _308  and  _310
REMARK  126  A    between atoms: _310  and  _311
REMARK  127  A    between atoms: _310  and  _313
REMARK  128  A    between atoms: _313  and  _314
REMARK  129  A    between atoms: _317  and  _319
REMARK  130  A    between atoms: _319  and  _320
REMARK  131  A    between atoms: _319  and  _322
REMARK  132  A    between atoms: _322  and  _323
REMARK  133  A    between atoms: _326  and  _328
REMARK  134  A    between atoms: _328  and  _329
REMARK  135  A    between atoms: _328  and  _331
REMARK  136  A    between atoms: _331  and  _332
REMARK  137  A    between atoms: _335  and  _337
REMARK  138  A    between atoms: _337  and  _338
REMARK  139  A    between atoms: _337  and  _340
REMARK  140  A    between atoms: _340  and  _341
REMARK  141  A    between atoms: _344  and  _346
REMARK  142  A    between atoms: _346  and  _347
REMARK  143  A    between atoms: _349  and  _351
REMARK  144  A    between atoms: _351  and  _352
REMARK  145  A    between atoms: _355  and  _357
REMARK  146  A    between atoms: _357  and  _358
REMARK  147  A    between atoms: _357  and  _360
REMARK  148  A    between atoms: _360  and  _361
REMARK  149  A    between atoms: _364  and  _366
REMARK  150  A    between atoms: _366  and  _367
REMARK  151  A    between atoms: _366  and  _369
REMARK  152  A    between atoms: _369  and  _370
REMARK  153  A    between atoms: _370  and  _372
REMARK  154  A    between atoms: _373  and  _375
REMARK  155  A    between atoms: _375  and  _376
REMARK  156  A    between atoms: _375  and  _378
REMARK  157  A    between atoms: _378  and  _379
REMARK  158  A    between atoms: _382  and  _384
REMARK  159  A    between atoms: _384  and  _385
REMARK  160  A    between atoms: _384  and  _387
REMARK  161  A    between atoms: _390  and  _392
REMARK  162  A    between atoms: _392  and  _393
REMARK  163  A    between atoms: _392  and  _395
REMARK  164  A    between atoms: _395  and  _396
REMARK  165  A    between atoms: _396  and  _397
REMARK  166  A    between atoms: _397  and  _398
REMARK  167  A    between atoms: _398  and  _399
REMARK  168  A    between atoms: _403  and  _405
REMARK  169  A    between atoms: _405  and  _406
REMARK  170  A    between atoms: _405  and  _408
REMARK  171  A    between atoms: _408  and  _409
REMARK  172  A    between atoms: _409  and  _410
REMARK  173  A    between atoms: _412  and  _414
REMARK  174  A    between atoms: _414  and  _415
REMARK  175  A    between atoms: _414  and  _417
REMARK  176  A    between atoms: _417  and  _418
REMARK  177  A    between atoms: _421  and  _423
REMARK  178  A    between atoms: _423  and  _424
REMARK  179  A    between atoms: _426  and  _428
REMARK  180  A    between atoms: _428  and  _429
REMARK  181  A    between atoms: _431  and  _433
REMARK  182  A    between atoms: _433  and  _434
REMARK  183  A    between atoms: _433  and  _436
REMARK  184  A    between atoms: _436  and  _437
REMARK  185  A    between atoms: _440  and  _442
REMARK  186  A    between atoms: _442  and  _443
REMARK  187  A    between atoms: _445  and  _447
REMARK  188  A    between atoms: _447  and  _448
REMARK  189  A    between atoms: _450  and  _452
REMARK  190  A    between atoms: _452  and  _453
REMARK  191  A    between atoms: _452  and  _455
REMARK  192  A    between atoms: _455  and  _456
REMARK  193  A    between atoms: _459  and  _461
REMARK  194  A    between atoms: _461  and  _462
REMARK  195  A    between atoms: _461  and  _464
REMARK  196  A    between atoms: _464  and  _465
REMARK  197  A    between atoms: _468  and  _470
REMARK  198  A    between atoms: _470  and  _471
REMARK  199  A    between atoms: _470  and  _473
REMARK  200  A    between atoms: _473  and  _474
REMARK  201  A    between atoms: _478  and  _479
REMARK  202  A    between atoms: _484  and  _486
REMARK  203  A    between atoms: _486  and  _487
REMARK  204  A    between atoms: _486  and  _489
REMARK  205  A    between atoms: _492  and  _494
REMARK  206  A    between atoms: _494  and  _495
REMARK  207  A    between atoms: _494  and  _497
REMARK  208  A    between atoms: _497  and  _498
REMARK  209  A    between atoms: _503  and  _505
REMARK  210  A    between atoms: _505  and  _506
REMARK  211  A    between atoms: _505  and  _508
REMARK  212  A    between atoms: _508  and  _509
REMARK  213  A    between atoms: _512  and  _514
REMARK  214  A    between atoms: _514  and  _515
REMARK  215  A    between atoms: _514  and  _517
REMARK  216  A    between atoms: _517  and  _518
REMARK  217  A    between atoms: _521  and  _523
REMARK  218  A    between atoms: _523  and  _524
REMARK  219  A    between atoms: _526  and  _528
REMARK  220  A    between atoms: _528  and  _529
REMARK  221  A    between atoms: _528  and  _531
REMARK  222  A    between atoms: _531  and  _532
REMARK  223  A    between atoms: _532  and  _533
REMARK  224  A    between atoms: _533  and  _534
REMARK  225  A    between atoms: _543  and  _545
REMARK  226  A    between atoms: _545  and  _546
REMARK  227  A    between atoms: _545  and  _548
REMARK  228  A    between atoms: _548  and  _549
REMARK                            x       y       z     vdW  Elec       q    Type
REMARK                         _______ _______ _______ _____ _____    ______ ____
ROOT
ATOM      1  O   HOH     1     -12.239   7.577  30.313  0.00  0.00    +0.000 OA
ENDROOT
TORSDOF 0
REMARK  Name = ../refined-set-2016/4ll3/4ll3_pocket.pdb
REMARK  228 active torsions:
REMARK  status: ('A' for Active; 'I' for Inactive)
REMARK    1  A    between atoms: _1  and  _3
REMARK    2  A    between atoms: _3  and  _4
REMARK    3  A    between atoms: _3  and  _6
REMARK    4  A    between atoms: _6  and  _7
REMARK    5  A    between atoms: _7  and  _8
REMARK    6  A    between atoms: _8  and  _9
REMARK    7  A    between atoms: _18  and  _20
REMARK    8  A    between atoms: _20  and  _21
REMARK    9  A    between atoms: _20  and  _23
REMARK   10  A    between atoms: _23  and  _24
REMARK   11  A    between atoms: _27  and  _29
REMARK   12  A    between atoms: _29  and  _30
REMARK   13  A    between atoms: _29  and  _32
REMARK   14  A    between atoms: _32  and  _33
REMARK   15  A    between atoms: _36  and  _38
REMARK   16  A    between atoms: _38  and  _39
REMARK   17  A    between atoms: _38  and  _41
REMARK   18  A    between atoms: _41  and  _42
REMARK   19  A    between atoms: _45  and  _47
REMARK   20  A    between atoms: _47  and  _48
REMARK   21  A    between atoms: _47  and  _50
REMARK   22  A    between atoms: _50  and  _51
REMARK   23  A    between atoms: _54  and  _56
REMARK   24  A    between atoms: _56  and  _57
REMARK   25  A    between atoms: _59  and  _61
REMARK   26  A    between atoms: _61  and  _62
REMARK   27  A    between atoms: _65  and  _67
REMARK   28  A    between atoms: _67  and  _68
REMARK   29  A    between atoms: _67  and  _70
REMARK   30  A    between atoms: _70  and  _71
REMARK   31  A    between atoms: _74  and  _76
REMARK   32  A    between atoms: _76  and  _77
REMARK   33  A    between atoms: _76  and  _79
REMARK   34  A    between atoms: _79  and  _80
REMARK   35  A    between atoms: _80  and  _82
REMARK   36  A    between atoms: _83  and  _85
REMARK   37  A    between atoms: _85  and  _86
REMARK   38  A    between atoms: _85  and  _88
REMARK   39  A    between atoms: _88  and  _89
REMARK   40  A    between atoms: _92  and  _94
REMARK   41  A    between atoms: _94  and  _95
REMARK   42  A    between atoms: _94  and  _97
REMARK   43  A    between atoms: _100  and  _102
REMARK   44  A    between atoms: _102  and  _103
REMARK   45  A    between atoms: _102  and  _105
REMARK   46  A    between atoms: _105  and  _106
REMARK   47  A    between atoms: _106  and  _107
REMARK   48  A    between atoms: _107  and  _108
REMARK   49  A    between atoms: _108  and  _109
REMARK   50  A    between atoms: _113  and  _115
REMARK   51  A    between atoms: _115  and  _116
REMARK   52  A    between atoms: _115  and  _118
REMARK   53  A    between atoms: _118  and  _119
REMARK   54  A    between atoms: _119  and  _120
REMARK   55  A    between atoms: _122  and  _124
REMARK   56  A    between atoms: _124  and  _125
REMARK   57  A    between atoms: _124  and  _127
REMARK   58  A    between atoms: _127  and  _128
REMARK   59  A    between atoms: _131  and  _133
REMARK   60  A    between atoms: _133  and  _134
REMARK   61  A    between atoms: _136  and  _138
REMARK   62  A    between atoms: _138  and  _139
REMARK   63  A    between atoms: _141  and  _143
REMARK   64  A    between atoms: _143  and  _144
REMARK   65  A    between atoms: _143  and  _146
REMARK   66  A    between atoms: _146  and  _147
REMARK   67  A    between atoms: _150  and  _152
REMARK   68  A    between atoms: _152  and  _153
REMARK   69  A    between atoms: _155  and  _157
REMARK   70  A    between atoms: _157  and  _158
REMARK   71  A    between atoms: _160  and  _162
REMARK   72  A    between atoms: _162  and  _163
REMARK   73  A    between atoms: _162  and  _165
REMARK   74  A    between atoms: _165  and  _166
REMARK   75  A    between atoms: _172  and  _174
REMARK   76  A    between atoms: _174  and  _175
REMARK   77  A    between atoms: _174  and  _177
REMARK   78  A    between atoms: _177  and  _178
REMARK   79  A    between atoms: _181  and  _183
REMARK   80  A    between atoms: _183  and  _184
REMARK   81  A    between atoms: _183  and  _186
REMARK   82  A    between atoms: _189  and  _191
REMARK   83  A    between atoms: _191  and  _192
REMARK   84  A    between atoms: _191  and  _194
REMARK   85  A    between atoms: _194  and  _195
REMARK   86  A    between atoms: _199  and  _200
REMARK   87  A    between atoms: _205  and  _207
REMARK   88  A    between atoms: _207  and  _208
REMARK   89  A    between atoms: _207  and  _210
REMARK   90  A    between atoms: _210  and  _211
REMARK   91  A    between atoms: _215  and  _216
REMARK   92  A    between atoms: _221  and  _223
REMARK   93  A    between atoms: _223  and  _224
REMARK   94  A    between atoms: _223  and  _226
REMARK   95  A    between atoms: _229  and  _231
REMARK   96  A    between atoms: _231  and  _232
REMARK   97  A    between atoms: _231  and  _234
REMARK   98  A    between atoms: _234  and  _235
REMARK   99  A    between atoms: _240  and  _242
REMARK  100  A    between atoms: _242  and  _243
REMARK  101  A    between atoms: _242  and  _245
REMARK  102  A    between atoms: _245  and  _246
REMARK  103  A    between atoms: _249  and  _251
REMARK  104  A    between atoms: _251  and  _252
REMARK  105  A    between atoms: _251  and  _254
REMARK  106  A    between atoms: _254  and  _255
REMARK  107  A    between atoms: _258  and  _260
REMARK  108  A    between atoms: _260  and  _261
REMARK  109  A    between atoms: _263  and  _265
REMARK  110  A    between atoms: _265  and  _266
REMARK  111  A    between atoms: _265  and  _268
REMARK  112  A    between atoms: _268  and  _269
REMARK  113  A    between atoms: _269  and  _270
REMARK  114  A    between atoms: _270  and  _271
REMARK  115  A    between atoms: _280  and  _282
REMARK  116  A    between atoms: _282  and  _283
REMARK  117  A    between atoms: _282  and  _285
REMARK  118  A    between atoms: _285  and  _286
REMARK  119  A    between atoms: _291  and  _293
REMARK  120  A    between atoms: _293  and  _294
REMARK  121  A    between atoms: _293  and  _296
REMARK  122  A    between atoms: _296  and  _297
REMARK  123  A    between atoms: _297  and  _298
REMARK  124  A    between atoms: _298  and  _299
REMARK  125  A    between atoms: _308  and  _310
REMARK  126  A    between atoms: _310  and  _311
REMARK  127  A    between atoms: _310  and  _313
REMARK  128  A    between atoms: _313  and  _314
REMARK  129  A    between atoms: _317  and  _319
REMARK  130  A    between atoms: _319  and  _320
REMARK  131  A    between atoms: _319  and  _322
REMARK  132  A    between atoms: _322  and  _323
REMARK  133  A    between atoms: _326  and  _328
REMARK  134  A    between atoms: _328  and  _329
REMARK  135  A    between atoms: _328  and  _331
REMARK  136  A    between atoms: _331  and  _332
REMARK  137  A    between atoms: _335  and  _337
REMARK  138  A    between atoms: _337  and  _338
REMARK  139  A    between atoms: _337  and  _340
REMARK  140  A    between atoms: _340  and  _341
REMARK  141  A    between atoms: _344  and  _346
REMARK  142  A    between atoms: _346  and  _347
REMARK  143  A    between atoms: _349  and  _351
REMARK  144  A    between atoms: _351  and  _352
REMARK  145  A    between atoms: _355  and  _357
REMARK  146  A    between atoms: _357  and  _358
REMARK  147  A    between atoms: _357  and  _360
REMARK  148  A    between atoms: _360  and  _361
REMARK  149  A    between atoms: _364  and  _366
REMARK  150  A    between atoms: _366  and  _367
REMARK  151  A    between atoms: _366  and  _369
REMARK  152  A    between atoms: _369  and  _370
REMARK  153  A    between atoms: _370  and  _372
REMARK  154  A    between atoms: _373  and  _375
REMARK  155  A    between atoms: _375  and  _376
REMARK  156  A    between atoms: _375  and  _378
REMARK  157  A    between atoms: _378  and  _379
REMARK  158  A    between atoms: _382  and  _384
REMARK  159  A    between atoms: _384  and  _385
REMARK  160  A    between atoms: _384  and  _387
REMARK  161  A    between atoms: _390  and  _392
REMARK  162  A    between atoms: _392  and  _393
REMARK  163  A    between atoms: _392  and  _395
REMARK  164  A    between atoms: _395  and  _396
REMARK  165  A    between atoms: _396  and  _397
REMARK  166  A    between atoms: _397  and  _398
REMARK  167  A    between atoms: _398  and  _399
REMARK  168  A    between atoms: _403  and  _405
REMARK  169  A    between atoms: _405  and  _406
REMARK  170  A    between atoms: _405  and  _408
REMARK  171  A    between atoms: _408  and  _409
REMARK  172  A    between atoms: _409  and  _410
REMARK  173  A    between atoms: _412  and  _414
REMARK  174  A    between atoms: _414  and  _415
REMARK  175  A    between atoms: _414  and  _417
REMARK  176  A    between atoms: _417  and  _418
REMARK  177  A    between atoms: _421  and  _423
REMARK  178  A    between atoms: _423  and  _424
REMARK  179  A    between atoms: _426  and  _428
REMARK  180  A    between atoms: _428  and  _429
REMARK  181  A    between atoms: _431  and  _433
REMARK  182  A    between atoms: _433  and  _434
REMARK  183  A    between atoms: _433  and  _436
REMARK  184  A    between atoms: _436  and  _437
REMARK  185  A    between atoms: _440  and  _442
REMARK  186  A    between atoms: _442  and  _443
REMARK  187  A    between atoms: _445  and  _447
REMARK  188  A    between atoms: _447  and  _448
REMARK  189  A    between atoms: _450  and  _452
REMARK  190  A    between atoms: _452  and  _453
REMARK  191  A    between atoms: _452  and  _455
REMARK  192  A    between atoms: _455  and  _456
REMARK  193  A    between atoms: _459  and  _461
REMARK  194  A    between atoms: _461  and  _462
REMARK  195  A    between atoms: _461  and  _464
REMARK  196  A    between atoms: _464  and  _465
REMARK  197  A    between atoms: _468  and  _470
REMARK  198  A    between atoms: _470  and  _471
REMARK  199  A    between atoms: _470  and  _473
REMARK  200  A    between atoms: _473  and  _474
REMARK  201  A    between atoms: _478  and  _479
REMARK  202  A    between atoms: _484  and  _486
REMARK  203  A    between atoms: _486  and  _487
REMARK  204  A    between atoms: _486  and  _489
REMARK  205  A    between atoms: _492  and  _494
REMARK  206  A    between atoms: _494  and  _495
REMARK  207  A    between atoms: _494  and  _497
REMARK  208  A    between atoms: _497  and  _498
REMARK  209  A    between atoms: _503  and  _505
REMARK  210  A    between atoms: _505  and  _506
REMARK  211  A    between atoms: _505  and  _508
REMARK  212  A    between atoms: _508  and  _509
REMARK  213  A    between atoms: _512  and  _514
REMARK  214  A    between atoms: _514  and  _515
REMARK  215  A    between atoms: _514  and  _517
REMARK  216  A    between atoms: _517  and  _518
REMARK  217  A    between atoms: _521  and  _523
REMARK  218  A    between atoms: _523  and  _524
REMARK  219  A    between atoms: _526  and  _528
REMARK  220  A    between atoms: _528  and  _529
REMARK  221  A    between atoms: _528  and  _531
REMARK  222  A    between atoms: _531  and  _532
REMARK  223  A    between atoms: _532  and  _533
REMARK  224  A    between atoms: _533  and  _534
REMARK  225  A    between atoms: _543  and  _545
REMARK  226  A    between atoms: _545  and  _546
REMARK  227  A    between atoms: _545  and  _548
REMARK  228  A    between atoms: _548  and  _549
REMARK                            x       y       z     vdW  Elec       q    Type
REMARK                         _______ _______ _______ _____ _____    ______ ____
ROOT
ATOM      1  O   HOH     1     -11.485  11.718  38.573  0.00  0.00    +0.000 OA
ENDROOT
TORSDOF 0
REMARK  Name = ../refined-set-2016/4ll3/4ll3_pocket.pdb
REMARK  228 active torsions:
REMARK  status: ('A' for Active; 'I' for Inactive)
REMARK    1  A    between atoms: _1  and  _3
REMARK    2  A    between atoms: _3  and  _4
REMARK    3  A    between atoms: _3  and  _6
REMARK    4  A    between atoms: _6  and  _7
REMARK    5  A    between atoms: _7  and  _8
REMARK    6  A    between atoms: _8  and  _9
REMARK    7  A    between atoms: _18  and  _20
REMARK    8  A    between atoms: _20  and  _21
REMARK    9  A    between atoms: _20  and  _23
REMARK   10  A    between atoms: _23  and  _24
REMARK   11  A    between atoms: _27  and  _29
REMARK   12  A    between atoms: _29  and  _30
REMARK   13  A    between atoms: _29  and  _32
REMARK   14  A    between atoms: _32  and  _33
REMARK   15  A    between atoms: _36  and  _38
REMARK   16  A    between atoms: _38  and  _39
REMARK   17  A    between atoms: _38  and  _41
REMARK   18  A    between atoms: _41  and  _42
REMARK   19  A    between atoms: _45  and  _47
REMARK   20  A    between atoms: _47  and  _48
REMARK   21  A    between atoms: _47  and  _50
REMARK   22  A    between atoms: _50  and  _51
REMARK   23  A    between atoms: _54  and  _56
REMARK   24  A    between atoms: _56  and  _57
REMARK   25  A    between atoms: _59  and  _61
REMARK   26  A    between atoms: _61  and  _62
REMARK   27  A    between atoms: _65  and  _67
REMARK   28  A    between atoms: _67  and  _68
REMARK   29  A    between atoms: _67  and  _70
REMARK   30  A    between atoms: _70  and  _71
REMARK   31  A    between atoms: _74  and  _76
REMARK   32  A    between atoms: _76  and  _77
REMARK   33  A    between atoms: _76  and  _79
REMARK   34  A    between atoms: _79  and  _80
REMARK   35  A    between atoms: _80  and  _82
REMARK   36  A    between atoms: _83  and  _85
REMARK   37  A    between atoms: _85  and  _86
REMARK   38  A    between atoms: _85  and  _88
REMARK   39  A    between atoms: _88  and  _89
REMARK   40  A    between atoms: _92  and  _94
REMARK   41  A    between atoms: _94  and  _95
REMARK   42  A    between atoms: _94  and  _97
REMARK   43  A    between atoms: _100  and  _102
REMARK   44  A    between atoms: _102  and  _103
REMARK   45  A    between atoms: _102  and  _105
REMARK   46  A    between atoms: _105  and  _106
REMARK   47  A    between atoms: _106  and  _107
REMARK   48  A    between atoms: _107  and  _108
REMARK   49  A    between atoms: _108  and  _109
REMARK   50  A    between atoms: _113  and  _115
REMARK   51  A    between atoms: _115  and  _116
REMARK   52  A    between atoms: _115  and  _118
REMARK   53  A    between atoms: _118  and  _119
REMARK   54  A    between atoms: _119  and  _120
REMARK   55  A    between atoms: _122  and  _124
REMARK   56  A    between atoms: _124  and  _125
REMARK   57  A    between atoms: _124  and  _127
REMARK   58  A    between atoms: _127  and  _128
REMARK   59  A    between atoms: _131  and  _133
REMARK   60  A    between atoms: _133  and  _134
REMARK   61  A    between atoms: _136  and  _138
REMARK   62  A    between atoms: _138  and  _139
REMARK   63  A    between atoms: _141  and  _143
REMARK   64  A    between atoms: _143  and  _144
REMARK   65  A    between atoms: _143  and  _146
REMARK   66  A    between atoms: _146  and  _147
REMARK   67  A    between atoms: _150  and  _152
REMARK   68  A    between atoms: _152  and  _153
REMARK   69  A    between atoms: _155  and  _157
REMARK   70  A    between atoms: _157  and  _158
REMARK   71  A    between atoms: _160  and  _162
REMARK   72  A    between atoms: _162  and  _163
REMARK   73  A    between atoms: _162  and  _165
REMARK   74  A    between atoms: _165  and  _166
REMARK   75  A    between atoms: _172  and  _174
REMARK   76  A    between atoms: _174  and  _175
REMARK   77  A    between atoms: _174  and  _177
REMARK   78  A    between atoms: _177  and  _178
REMARK   79  A    between atoms: _181  and  _183
REMARK   80  A    between atoms: _183  and  _184
REMARK   81  A    between atoms: _183  and  _186
REMARK   82  A    between atoms: _189  and  _191
REMARK   83  A    between atoms: _191  and  _192
REMARK   84  A    between atoms: _191  and  _194
REMARK   85  A    between atoms: _194  and  _195
REMARK   86  A    between atoms: _199  and  _200
REMARK   87  A    between atoms: _205  and  _207
REMARK   88  A    between atoms: _207  and  _208
REMARK   89  A    between atoms: _207  and  _210
REMARK   90  A    between atoms: _210  and  _211
REMARK   91  A    between atoms: _215  and  _216
REMARK   92  A    between atoms: _221  and  _223
REMARK   93  A    between atoms: _223  and  _224
REMARK   94  A    between atoms: _223  and  _226
REMARK   95  A    between atoms: _229  and  _231
REMARK   96  A    between atoms: _231  and  _232
REMARK   97  A    between atoms: _231  and  _234
REMARK   98  A    between atoms: _234  and  _235
REMARK   99  A    between atoms: _240  and  _242
REMARK  100  A    between atoms: _242  and  _243
REMARK  101  A    between atoms: _242  and  _245
REMARK  102  A    between atoms: _245  and  _246
REMARK  103  A    between atoms: _249  and  _251
REMARK  104  A    between atoms: _251  and  _252
REMARK  105  A    between atoms: _251  and  _254
REMARK  106  A    between atoms: _254  and  _255
REMARK  107  A    between atoms: _258  and  _260
REMARK  108  A    between atoms: _260  and  _261
REMARK  109  A    between atoms: _263  and  _265
REMARK  110  A    between atoms: _265  and  _266
REMARK  111  A    between atoms: _265  and  _268
REMARK  112  A    between atoms: _268  and  _269
REMARK  113  A    between atoms: _269  and  _270
REMARK  114  A    between atoms: _270  and  _271
REMARK  115  A    between atoms: _280  and  _282
REMARK  116  A    between atoms: _282  and  _283
REMARK  117  A    between atoms: _282  and  _285
REMARK  118  A    between atoms: _285  and  _286
REMARK  119  A    between atoms: _291  and  _293
REMARK  120  A    between atoms: _293  and  _294
REMARK  121  A    between atoms: _293  and  _296
REMARK  122  A    between atoms: _296  and  _297
REMARK  123  A    between atoms: _297  and  _298
REMARK  124  A    between atoms: _298  and  _299
REMARK  125  A    between atoms: _308  and  _310
REMARK  126  A    between atoms: _310  and  _311
REMARK  127  A    between atoms: _310  and  _313
REMARK  128  A    between atoms: _313  and  _314
REMARK  129  A    between atoms: _317  and  _319
REMARK  130  A    between atoms: _319  and  _320
REMARK  131  A    between atoms: _319  and  _322
REMARK  132  A    between atoms: _322  and  _323
REMARK  133  A    between atoms: _326  and  _328
REMARK  134  A    between atoms: _328  and  _329
REMARK  135  A    between atoms: _328  and  _331
REMARK  136  A    between atoms: _331  and  _332
REMARK  137  A    between atoms: _335  and  _337
REMARK  138  A    between atoms: _337  and  _338
REMARK  139  A    between atoms: _337  and  _340
REMARK  140  A    between atoms: _340  and  _341
REMARK  141  A    between atoms: _344  and  _346
REMARK  142  A    between atoms: _346  and  _347
REMARK  143  A    between atoms: _349  and  _351
REMARK  144  A    between atoms: _351  and  _352
REMARK  145  A    between atoms: _355  and  _357
REMARK  146  A    between atoms: _357  and  _358
REMARK  147  A    between atoms: _357  and  _360
REMARK  148  A    between atoms: _360  and  _361
REMARK  149  A    between atoms: _364  and  _366
REMARK  150  A    between atoms: _366  and  _367
REMARK  151  A    between atoms: _366  and  _369
REMARK  152  A    between atoms: _369  and  _370
REMARK  153  A    between atoms: _370  and  _372
REMARK  154  A    between atoms: _373  and  _375
REMARK  155  A    between atoms: _375  and  _376
REMARK  156  A    between atoms: _375  and  _378
REMARK  157  A    between atoms: _378  and  _379
REMARK  158  A    between atoms: _382  and  _384
REMARK  159  A    between atoms: _384  and  _385
REMARK  160  A    between atoms: _384  and  _387
REMARK  161  A    between atoms: _390  and  _392
REMARK  162  A    between atoms: _392  and  _393
REMARK  163  A    between atoms: _392  and  _395
REMARK  164  A    between atoms: _395  and  _396
REMARK  165  A    between atoms: _396  and  _397
REMARK  166  A    between atoms: _397  and  _398
REMARK  167  A    between atoms: _398  and  _399
REMARK  168  A    between atoms: _403  and  _405
REMARK  169  A    between atoms: _405  and  _406
REMARK  170  A    between atoms: _405  and  _408
REMARK  171  A    between atoms: _408  and  _409
REMARK  172  A    between atoms: _409  and  _410
REMARK  173  A    between atoms: _412  and  _414
REMARK  174  A    between atoms: _414  and  _415
REMARK  175  A    between atoms: _414  and  _417
REMARK  176  A    between atoms: _417  and  _418
REMARK  177  A    between atoms: _421  and  _423
REMARK  178  A    between atoms: _423  and  _424
REMARK  179  A    between atoms: _426  and  _428
REMARK  180  A    between atoms: _428  and  _429
REMARK  181  A    between atoms: _431  and  _433
REMARK  182  A    between atoms: _433  and  _434
REMARK  183  A    between atoms: _433  and  _436
REMARK  184  A    between atoms: _436  and  _437
REMARK  185  A    between atoms: _440  and  _442
REMARK  186  A    between atoms: _442  and  _443
REMARK  187  A    between atoms: _445  and  _447
REMARK  188  A    between atoms: _447  and  _448
REMARK  189  A    between atoms: _450  and  _452
REMARK  190  A    between atoms: _452  and  _453
REMARK  191  A    between atoms: _452  and  _455
REMARK  192  A    between atoms: _455  and  _456
REMARK  193  A    between atoms: _459  and  _461
REMARK  194  A    between atoms: _461  and  _462
REMARK  195  A    between atoms: _461  and  _464
REMARK  196  A    between atoms: _464  and  _465
REMARK  197  A    between atoms: _468  and  _470
REMARK  198  A    between atoms: _470  and  _471
REMARK  199  A    between atoms: _470  and  _473
REMARK  200  A    between atoms: _473  and  _474
REMARK  201  A    between atoms: _478  and  _479
REMARK  202  A    between atoms: _484  and  _486
REMARK  203  A    between atoms: _486  and  _487
REMARK  204  A    between atoms: _486  and  _489
REMARK  205  A    between atoms: _492  and  _494
REMARK  206  A    between atoms: _494  and  _495
REMARK  207  A    between atoms: _494  and  _497
REMARK  208  A    between atoms: _497  and  _498
REMARK  209  A    between atoms: _503  and  _505
REMARK  210  A    between atoms: _505  and  _506
REMARK  211  A    between atoms: _505  and  _508
REMARK  212  A    between atoms: _508  and  _509
REMARK  213  A    between atoms: _512  and  _514
REMARK  214  A    between atoms: _514  and  _515
REMARK  215  A    between atoms: _514  and  _517
REMARK  216  A    between atoms: _517  and  _518
REMARK  217  A    between atoms: _521  and  _523
REMARK  218  A    between atoms: _523  and  _524
REMARK  219  A    between atoms: _526  and  _528
REMARK  220  A    between atoms: _528  and  _529
REMARK  221  A    between atoms: _528  and  _531
REMARK  222  A    between atoms: _531  and  _532
REMARK  223  A    between atoms: _532  and  _533
REMARK  224  A    between atoms: _533  and  _534
REMARK  225  A    between atoms: _543  and  _545
REMARK  226  A    between atoms: _545  and  _546
REMARK  227  A    between atoms: _545  and  _548
REMARK  228  A    between atoms: _548  and  _549
REMARK                            x       y       z     vdW  Elec       q    Type
REMARK                         _______ _______ _______ _____ _____    ______ ____
ROOT
ATOM      1  O   HOH     1     -15.839  16.130  30.904  0.00  0.00    +0.000 OA
ENDROOT
TORSDOF 0
REMARK  Name = ../refined-set-2016/4ll3/4ll3_pocket.pdb
REMARK  228 active torsions:
REMARK  status: ('A' for Active; 'I' for Inactive)
REMARK    1  A    between atoms: _1  and  _3
REMARK    2  A    between atoms: _3  and  _4
REMARK    3  A    between atoms: _3  and  _6
REMARK    4  A    between atoms: _6  and  _7
REMARK    5  A    between atoms: _7  and  _8
REMARK    6  A    between atoms: _8  and  _9
REMARK    7  A    between atoms: _18  and  _20
REMARK    8  A    between atoms: _20  and  _21
REMARK    9  A    between atoms: _20  and  _23
REMARK   10  A    between atoms: _23  and  _24
REMARK   11  A    between atoms: _27  and  _29
REMARK   12  A    between atoms: _29  and  _30
REMARK   13  A    between atoms: _29  and  _32
REMARK   14  A    between atoms: _32  and  _33
REMARK   15  A    between atoms: _36  and  _38
REMARK   16  A    between atoms: _38  and  _39
REMARK   17  A    between atoms: _38  and  _41
REMARK   18  A    between atoms: _41  and  _42
REMARK   19  A    between atoms: _45  and  _47
REMARK   20  A    between atoms: _47  and  _48
REMARK   21  A    between atoms: _47  and  _50
REMARK   22  A    between atoms: _50  and  _51
REMARK   23  A    between atoms: _54  and  _56
REMARK   24  A    between atoms: _56  and  _57
REMARK   25  A    between atoms: _59  and  _61
REMARK   26  A    between atoms: _61  and  _62
REMARK   27  A    between atoms: _65  and  _67
REMARK   28  A    between atoms: _67  and  _68
REMARK   29  A    between atoms: _67  and  _70
REMARK   30  A    between atoms: _70  and  _71
REMARK   31  A    between atoms: _74  and  _76
REMARK   32  A    between atoms: _76  and  _77
REMARK   33  A    between atoms: _76  and  _79
REMARK   34  A    between atoms: _79  and  _80
REMARK   35  A    between atoms: _80  and  _82
REMARK   36  A    between atoms: _83  and  _85
REMARK   37  A    between atoms: _85  and  _86
REMARK   38  A    between atoms: _85  and  _88
REMARK   39  A    between atoms: _88  and  _89
REMARK   40  A    between atoms: _92  and  _94
REMARK   41  A    between atoms: _94  and  _95
REMARK   42  A    between atoms: _94  and  _97
REMARK   43  A    between atoms: _100  and  _102
REMARK   44  A    between atoms: _102  and  _103
REMARK   45  A    between atoms: _102  and  _105
REMARK   46  A    between atoms: _105  and  _106
REMARK   47  A    between atoms: _106  and  _107
REMARK   48  A    between atoms: _107  and  _108
REMARK   49  A    between atoms: _108  and  _109
REMARK   50  A    between atoms: _113  and  _115
REMARK   51  A    between atoms: _115  and  _116
REMARK   52  A    between atoms: _115  and  _118
REMARK   53  A    between atoms: _118  and  _119
REMARK   54  A    between atoms: _119  and  _120
REMARK   55  A    between atoms: _122  and  _124
REMARK   56  A    between atoms: _124  and  _125
REMARK   57  A    between atoms: _124  and  _127
REMARK   58  A    between atoms: _127  and  _128
REMARK   59  A    between atoms: _131  and  _133
REMARK   60  A    between atoms: _133  and  _134
REMARK   61  A    between atoms: _136  and  _138
REMARK   62  A    between atoms: _138  and  _139
REMARK   63  A    between atoms: _141  and  _143
REMARK   64  A    between atoms: _143  and  _144
REMARK   65  A    between atoms: _143  and  _146
REMARK   66  A    between atoms: _146  and  _147
REMARK   67  A    between atoms: _150  and  _152
REMARK   68  A    between atoms: _152  and  _153
REMARK   69  A    between atoms: _155  and  _157
REMARK   70  A    between atoms: _157  and  _158
REMARK   71  A    between atoms: _160  and  _162
REMARK   72  A    between atoms: _162  and  _163
REMARK   73  A    between atoms: _162  and  _165
REMARK   74  A    between atoms: _165  and  _166
REMARK   75  A    between atoms: _172  and  _174
REMARK   76  A    between atoms: _174  and  _175
REMARK   77  A    between atoms: _174  and  _177
REMARK   78  A    between atoms: _177  and  _178
REMARK   79  A    between atoms: _181  and  _183
REMARK   80  A    between atoms: _183  and  _184
REMARK   81  A    between atoms: _183  and  _186
REMARK   82  A    between atoms: _189  and  _191
REMARK   83  A    between atoms: _191  and  _192
REMARK   84  A    between atoms: _191  and  _194
REMARK   85  A    between atoms: _194  and  _195
REMARK   86  A    between atoms: _199  and  _200
REMARK   87  A    between atoms: _205  and  _207
REMARK   88  A    between atoms: _207  and  _208
REMARK   89  A    between atoms: _207  and  _210
REMARK   90  A    between atoms: _210  and  _211
REMARK   91  A    between atoms: _215  and  _216
REMARK   92  A    between atoms: _221  and  _223
REMARK   93  A    between atoms: _223  and  _224
REMARK   94  A    between atoms: _223  and  _226
REMARK   95  A    between atoms: _229  and  _231
REMARK   96  A    between atoms: _231  and  _232
REMARK   97  A    between atoms: _231  and  _234
REMARK   98  A    between atoms: _234  and  _235
REMARK   99  A    between atoms: _240  and  _242
REMARK  100  A    between atoms: _242  and  _243
REMARK  101  A    between atoms: _242  and  _245
REMARK  102  A    between atoms: _245  and  _246
REMARK  103  A    between atoms: _249  and  _251
REMARK  104  A    between atoms: _251  and  _252
REMARK  105  A    between atoms: _251  and  _254
REMARK  106  A    between atoms: _254  and  _255
REMARK  107  A    between atoms: _258  and  _260
REMARK  108  A    between atoms: _260  and  _261
REMARK  109  A    between atoms: _263  and  _265
REMARK  110  A    between atoms: _265  and  _266
REMARK  111  A    between atoms: _265  and  _268
REMARK  112  A    between atoms: _268  and  _269
REMARK  113  A    between atoms: _269  and  _270
REMARK  114  A    between atoms: _270  and  _271
REMARK  115  A    between atoms: _280  and  _282
REMARK  116  A    between atoms: _282  and  _283
REMARK  117  A    between atoms: _282  and  _285
REMARK  118  A    between atoms: _285  and  _286
REMARK  119  A    between atoms: _291  and  _293
REMARK  120  A    between atoms: _293  and  _294
REMARK  121  A    between atoms: _293  and  _296
REMARK  122  A    between atoms: _296  and  _297
REMARK  123  A    between atoms: _297  and  _298
REMARK  124  A    between atoms: _298  and  _299
REMARK  125  A    between atoms: _308  and  _310
REMARK  126  A    between atoms: _310  and  _311
REMARK  127  A    between atoms: _310  and  _313
REMARK  128  A    between atoms: _313  and  _314
REMARK  129  A    between atoms: _317  and  _319
REMARK  130  A    between atoms: _319  and  _320
REMARK  131  A    between atoms: _319  and  _322
REMARK  132  A    between atoms: _322  and  _323
REMARK  133  A    between atoms: _326  and  _328
REMARK  134  A    between atoms: _328  and  _329
REMARK  135  A    between atoms: _328  and  _331
REMARK  136  A    between atoms: _331  and  _332
REMARK  137  A    between atoms: _335  and  _337
REMARK  138  A    between atoms: _337  and  _338
REMARK  139  A    between atoms: _337  and  _340
REMARK  140  A    between atoms: _340  and  _341
REMARK  141  A    between atoms: _344  and  _346
REMARK  142  A    between atoms: _346  and  _347
REMARK  143  A    between atoms: _349  and  _351
REMARK  144  A    between atoms: _351  and  _352
REMARK  145  A    between atoms: _355  and  _357
REMARK  146  A    between atoms: _357  and  _358
REMARK  147  A    between atoms: _357  and  _360
REMARK  148  A    between atoms: _360  and  _361
REMARK  149  A    between atoms: _364  and  _366
REMARK  150  A    between atoms: _366  and  _367
REMARK  151  A    between atoms: _366  and  _369
REMARK  152  A    between atoms: _369  and  _370
REMARK  153  A    between atoms: _370  and  _372
REMARK  154  A    between atoms: _373  and  _375
REMARK  155  A    between atoms: _375  and  _376
REMARK  156  A    between atoms: _375  and  _378
REMARK  157  A    between atoms: _378  and  _379
REMARK  158  A    between atoms: _382  and  _384
REMARK  159  A    between atoms: _384  and  _385
REMARK  160  A    between atoms: _384  and  _387
REMARK  161  A    between atoms: _390  and  _392
REMARK  162  A    between atoms: _392  and  _393
REMARK  163  A    between atoms: _392  and  _395
REMARK  164  A    between atoms: _395  and  _396
REMARK  165  A    between atoms: _396  and  _397
REMARK  166  A    between atoms: _397  and  _398
REMARK  167  A    between atoms: _398  and  _399
REMARK  168  A    between atoms: _403  and  _405
REMARK  169  A    between atoms: _405  and  _406
REMARK  170  A    between atoms: _405  and  _408
REMARK  171  A    between atoms: _408  and  _409
REMARK  172  A    between atoms: _409  and  _410
REMARK  173  A    between atoms: _412  and  _414
REMARK  174  A    between atoms: _414  and  _415
REMARK  175  A    between atoms: _414  and  _417
REMARK  176  A    between atoms: _417  and  _418
REMARK  177  A    between atoms: _421  and  _423
REMARK  178  A    between atoms: _423  and  _424
REMARK  179  A    between atoms: _426  and  _428
REMARK  180  A    between atoms: _428  and  _429
REMARK  181  A    between atoms: _431  and  _433
REMARK  182  A    between atoms: _433  and  _434
REMARK  183  A    between atoms: _433  and  _436
REMARK  184  A    between atoms: _436  and  _437
REMARK  185  A    between atoms: _440  and  _442
REMARK  186  A    between atoms: _442  and  _443
REMARK  187  A    between atoms: _445  and  _447
REMARK  188  A    between atoms: _447  and  _448
REMARK  189  A    between atoms: _450  and  _452
REMARK  190  A    between atoms: _452  and  _453
REMARK  191  A    between atoms: _452  and  _455
REMARK  192  A    between atoms: _455  and  _456
REMARK  193  A    between atoms: _459  and  _461
REMARK  194  A    between atoms: _461  and  _462
REMARK  195  A    between atoms: _461  and  _464
REMARK  196  A    between atoms: _464  and  _465
REMARK  197  A    between atoms: _468  and  _470
REMARK  198  A    between atoms: _470  and  _471
REMARK  199  A    between atoms: _470  and  _473
REMARK  200  A    between atoms: _473  and  _474
REMARK  201  A    between atoms: _478  and  _479
REMARK  202  A    between atoms: _484  and  _486
REMARK  203  A    between atoms: _486  and  _487
REMARK  204  A    between atoms: _486  and  _489
REMARK  205  A    between atoms: _492  and  _494
REMARK  206  A    between atoms: _494  and  _495
REMARK  207  A    between atoms: _494  and  _497
REMARK  208  A    between atoms: _497  and  _498
REMARK  209  A    between atoms: _503  and  _505
REMARK  210  A    between atoms: _505  and  _506
REMARK  211  A    between atoms: _505  and  _508
REMARK  212  A    between atoms: _508  and  _509
REMARK  213  A    between atoms: _512  and  _514
REMARK  214  A    between atoms: _514  and  _515
REMARK  215  A    between atoms: _514  and  _517
REMARK  216  A    between atoms: _517  and  _518
REMARK  217  A    between atoms: _521  and  _523
REMARK  218  A    between atoms: _523  and  _524
REMARK  219  A    between atoms: _526  and  _528
REMARK  220  A    between atoms: _528  and  _529
REMARK  221  A    between atoms: _528  and  _531
REMARK  222  A    between atoms: _531  and  _532
REMARK  223  A    between atoms: _532  and  _533
REMARK  224  A    between atoms: _533  and  _534
REMARK  225  A    between atoms: _543  and  _545
REMARK  226  A    between atoms: _545  and  _546
REMARK  227  A    between atoms: _545  and  _548
REMARK  228  A    between atoms: _548  and  _549
REMARK                            x       y       z     vdW  Elec       q    Type
REMARK                         _______ _______ _______ _____ _____    ______ ____
ROOT
ATOM      1  O   HOH     1     -11.314  10.605  34.550  0.00  0.00    +0.000 OA
ENDROOT
TORSDOF 0
REMARK  Name = ../refined-set-2016/4ll3/4ll3_pocket.pdb
REMARK  228 active torsions:
REMARK  status: ('A' for Active; 'I' for Inactive)
REMARK    1  A    between atoms: _1  and  _3
REMARK    2  A    between atoms: _3  and  _4
REMARK    3  A    between atoms: _3  and  _6
REMARK    4  A    between atoms: _6  and  _7
REMARK    5  A    between atoms: _7  and  _8
REMARK    6  A    between atoms: _8  and  _9
REMARK    7  A    between atoms: _18  and  _20
REMARK    8  A    between atoms: _20  and  _21
REMARK    9  A    between atoms: _20  and  _23
REMARK   10  A    between atoms: _23  and  _24
REMARK   11  A    between atoms: _27  and  _29
REMARK   12  A    between atoms: _29  and  _30
REMARK   13  A    between atoms: _29  and  _32
REMARK   14  A    between atoms: _32  and  _33
REMARK   15  A    between atoms: _36  and  _38
REMARK   16  A    between atoms: _38  and  _39
REMARK   17  A    between atoms: _38  and  _41
REMARK   18  A    between atoms: _41  and  _42
REMARK   19  A    between atoms: _45  and  _47
REMARK   20  A    between atoms: _47  and  _48
REMARK   21  A    between atoms: _47  and  _50
REMARK   22  A    between atoms: _50  and  _51
REMARK   23  A    between atoms: _54  and  _56
REMARK   24  A    between atoms: _56  and  _57
REMARK   25  A    between atoms: _59  and  _61
REMARK   26  A    between atoms: _61  and  _62
REMARK   27  A    between atoms: _65  and  _67
REMARK   28  A    between atoms: _67  and  _68
REMARK   29  A    between atoms: _67  and  _70
REMARK   30  A    between atoms: _70  and  _71
REMARK   31  A    between atoms: _74  and  _76
REMARK   32  A    between atoms: _76  and  _77
REMARK   33  A    between atoms: _76  and  _79
REMARK   34  A    between atoms: _79  and  _80
REMARK   35  A    between atoms: _80  and  _82
REMARK   36  A    between atoms: _83  and  _85
REMARK   37  A    between atoms: _85  and  _86
REMARK   38  A    between atoms: _85  and  _88
REMARK   39  A    between atoms: _88  and  _89
REMARK   40  A    between atoms: _92  and  _94
REMARK   41  A    between atoms: _94  and  _95
REMARK   42  A    between atoms: _94  and  _97
REMARK   43  A    between atoms: _100  and  _102
REMARK   44  A    between atoms: _102  and  _103
REMARK   45  A    between atoms: _102  and  _105
REMARK   46  A    between atoms: _105  and  _106
REMARK   47  A    between atoms: _106  and  _107
REMARK   48  A    between atoms: _107  and  _108
REMARK   49  A    between atoms: _108  and  _109
REMARK   50  A    between atoms: _113  and  _115
REMARK   51  A    between atoms: _115  and  _116
REMARK   52  A    between atoms: _115  and  _118
REMARK   53  A    between atoms: _118  and  _119
REMARK   54  A    between atoms: _119  and  _120
REMARK   55  A    between atoms: _122  and  _124
REMARK   56  A    between atoms: _124  and  _125
REMARK   57  A    between atoms: _124  and  _127
REMARK   58  A    between atoms: _127  and  _128
REMARK   59  A    between atoms: _131  and  _133
REMARK   60  A    between atoms: _133  and  _134
REMARK   61  A    between atoms: _136  and  _138
REMARK   62  A    between atoms: _138  and  _139
REMARK   63  A    between atoms: _141  and  _143
REMARK   64  A    between atoms: _143  and  _144
REMARK   65  A    between atoms: _143  and  _146
REMARK   66  A    between atoms: _146  and  _147
REMARK   67  A    between atoms: _150  and  _152
REMARK   68  A    between atoms: _152  and  _153
REMARK   69  A    between atoms: _155  and  _157
REMARK   70  A    between atoms: _157  and  _158
REMARK   71  A    between atoms: _160  and  _162
REMARK   72  A    between atoms: _162  and  _163
REMARK   73  A    between atoms: _162  and  _165
REMARK   74  A    between atoms: _165  and  _166
REMARK   75  A    between atoms: _172  and  _174
REMARK   76  A    between atoms: _174  and  _175
REMARK   77  A    between atoms: _174  and  _177
REMARK   78  A    between atoms: _177  and  _178
REMARK   79  A    between atoms: _181  and  _183
REMARK   80  A    between atoms: _183  and  _184
REMARK   81  A    between atoms: _183  and  _186
REMARK   82  A    between atoms: _189  and  _191
REMARK   83  A    between atoms: _191  and  _192
REMARK   84  A    between atoms: _191  and  _194
REMARK   85  A    between atoms: _194  and  _195
REMARK   86  A    between atoms: _199  and  _200
REMARK   87  A    between atoms: _205  and  _207
REMARK   88  A    between atoms: _207  and  _208
REMARK   89  A    between atoms: _207  and  _210
REMARK   90  A    between atoms: _210  and  _211
REMARK   91  A    between atoms: _215  and  _216
REMARK   92  A    between atoms: _221  and  _223
REMARK   93  A    between atoms: _223  and  _224
REMARK   94  A    between atoms: _223  and  _226
REMARK   95  A    between atoms: _229  and  _231
REMARK   96  A    between atoms: _231  and  _232
REMARK   97  A    between atoms: _231  and  _234
REMARK   98  A    between atoms: _234  and  _235
REMARK   99  A    between atoms: _240  and  _242
REMARK  100  A    between atoms: _242  and  _243
REMARK  101  A    between atoms: _242  and  _245
REMARK  102  A    between atoms: _245  and  _246
REMARK  103  A    between atoms: _249  and  _251
REMARK  104  A    between atoms: _251  and  _252
REMARK  105  A    between atoms: _251  and  _254
REMARK  106  A    between atoms: _254  and  _255
REMARK  107  A    between atoms: _258  and  _260
REMARK  108  A    between atoms: _260  and  _261
REMARK  109  A    between atoms: _263  and  _265
REMARK  110  A    between atoms: _265  and  _266
REMARK  111  A    between atoms: _265  and  _268
REMARK  112  A    between atoms: _268  and  _269
REMARK  113  A    between atoms: _269  and  _270
REMARK  114  A    between atoms: _270  and  _271
REMARK  115  A    between atoms: _280  and  _282
REMARK  116  A    between atoms: _282  and  _283
REMARK  117  A    between atoms: _282  and  _285
REMARK  118  A    between atoms: _285  and  _286
REMARK  119  A    between atoms: _291  and  _293
REMARK  120  A    between atoms: _293  and  _294
REMARK  121  A    between atoms: _293  and  _296
REMARK  122  A    between atoms: _296  and  _297
REMARK  123  A    between atoms: _297  and  _298
REMARK  124  A    between atoms: _298  and  _299
REMARK  125  A    between atoms: _308  and  _310
REMARK  126  A    between atoms: _310  and  _311
REMARK  127  A    between atoms: _310  and  _313
REMARK  128  A    between atoms: _313  and  _314
REMARK  129  A    between atoms: _317  and  _319
REMARK  130  A    between atoms: _319  and  _320
REMARK  131  A    between atoms: _319  and  _322
REMARK  132  A    between atoms: _322  and  _323
REMARK  133  A    between atoms: _326  and  _328
REMARK  134  A    between atoms: _328  and  _329
REMARK  135  A    between atoms: _328  and  _331
REMARK  136  A    between atoms: _331  and  _332
REMARK  137  A    between atoms: _335  and  _337
REMARK  138  A    between atoms: _337  and  _338
REMARK  139  A    between atoms: _337  and  _340
REMARK  140  A    between atoms: _340  and  _341
REMARK  141  A    between atoms: _344  and  _346
REMARK  142  A    between atoms: _346  and  _347
REMARK  143  A    between atoms: _349  and  _351
REMARK  144  A    between atoms: _351  and  _352
REMARK  145  A    between atoms: _355  and  _357
REMARK  146  A    between atoms: _357  and  _358
REMARK  147  A    between atoms: _357  and  _360
REMARK  148  A    between atoms: _360  and  _361
REMARK  149  A    between atoms: _364  and  _366
REMARK  150  A    between atoms: _366  and  _367
REMARK  151  A    between atoms: _366  and  _369
REMARK  152  A    between atoms: _369  and  _370
REMARK  153  A    between atoms: _370  and  _372
REMARK  154  A    between atoms: _373  and  _375
REMARK  155  A    between atoms: _375  and  _376
REMARK  156  A    between atoms: _375  and  _378
REMARK  157  A    between atoms: _378  and  _379
REMARK  158  A    between atoms: _382  and  _384
REMARK  159  A    between atoms: _384  and  _385
REMARK  160  A    between atoms: _384  and  _387
REMARK  161  A    between atoms: _390  and  _392
REMARK  162  A    between atoms: _392  and  _393
REMARK  163  A    between atoms: _392  and  _395
REMARK  164  A    between atoms: _395  and  _396
REMARK  165  A    between atoms: _396  and  _397
REMARK  166  A    between atoms: _397  and  _398
REMARK  167  A    between atoms: _398  and  _399
REMARK  168  A    between atoms: _403  and  _405
REMARK  169  A    between atoms: _405  and  _406
REMARK  170  A    between atoms: _405  and  _408
REMARK  171  A    between atoms: _408  and  _409
REMARK  172  A    between atoms: _409  and  _410
REMARK  173  A    between atoms: _412  and  _414
REMARK  174  A    between atoms: _414  and  _415
REMARK  175  A    between atoms: _414  and  _417
REMARK  176  A    between atoms: _417  and  _418
REMARK  177  A    between atoms: _421  and  _423
REMARK  178  A    between atoms: _423  and  _424
REMARK  179  A    between atoms: _426  and  _428
REMARK  180  A    between atoms: _428  and  _429
REMARK  181  A    between atoms: _431  and  _433
REMARK  182  A    between atoms: _433  and  _434
REMARK  183  A    between atoms: _433  and  _436
REMARK  184  A    between atoms: _436  and  _437
REMARK  185  A    between atoms: _440  and  _442
REMARK  186  A    between atoms: _442  and  _443
REMARK  187  A    between atoms: _445  and  _447
REMARK  188  A    between atoms: _447  and  _448
REMARK  189  A    between atoms: _450  and  _452
REMARK  190  A    between atoms: _452  and  _453
REMARK  191  A    between atoms: _452  and  _455
REMARK  192  A    between atoms: _455  and  _456
REMARK  193  A    between atoms: _459  and  _461
REMARK  194  A    between atoms: _461  and  _462
REMARK  195  A    between atoms: _461  and  _464
REMARK  196  A    between atoms: _464  and  _465
REMARK  197  A    between atoms: _468  and  _470
REMARK  198  A    between atoms: _470  and  _471
REMARK  199  A    between atoms: _470  and  _473
REMARK  200  A    between atoms: _473  and  _474
REMARK  201  A    between atoms: _478  and  _479
REMARK  202  A    between atoms: _484  and  _486
REMARK  203  A    between atoms: _486  and  _487
REMARK  204  A    between atoms: _486  and  _489
REMARK  205  A    between atoms: _492  and  _494
REMARK  206  A    between atoms: _494  and  _495
REMARK  207  A    between atoms: _494  and  _497
REMARK  208  A    between atoms: _497  and  _498
REMARK  209  A    between atoms: _503  and  _505
REMARK  210  A    between atoms: _505  and  _506
REMARK  211  A    between atoms: _505  and  _508
REMARK  212  A    between atoms: _508  and  _509
REMARK  213  A    between atoms: _512  and  _514
REMARK  214  A    between atoms: _514  and  _515
REMARK  215  A    between atoms: _514  and  _517
REMARK  216  A    between atoms: _517  and  _518
REMARK  217  A    between atoms: _521  and  _523
REMARK  218  A    between atoms: _523  and  _524
REMARK  219  A    between atoms: _526  and  _528
REMARK  220  A    between atoms: _528  and  _529
REMARK  221  A    between atoms: _528  and  _531
REMARK  222  A    between atoms: _531  and  _532
REMARK  223  A    between atoms: _532  and  _533
REMARK  224  A    between atoms: _533  and  _534
REMARK  225  A    between atoms: _543  and  _545
REMARK  226  A    between atoms: _545  and  _546
REMARK  227  A    between atoms: _545  and  _548
REMARK  228  A    between atoms: _548  and  _549
REMARK                            x       y       z     vdW  Elec       q    Type
REMARK                         _______ _______ _______ _____ _____    ______ ____
ROOT
ATOM      1  O   HOH     1     -13.798   5.068  30.176  0.00  0.00    +0.000 OA
ENDROOT
TORSDOF 0
REMARK  Name = ../refined-set-2016/4ll3/4ll3_pocket.pdb
REMARK  228 active torsions:
REMARK  status: ('A' for Active; 'I' for Inactive)
REMARK    1  A    between atoms: _1  and  _3
REMARK    2  A    between atoms: _3  and  _4
REMARK    3  A    between atoms: _3  and  _6
REMARK    4  A    between atoms: _6  and  _7
REMARK    5  A    between atoms: _7  and  _8
REMARK    6  A    between atoms: _8  and  _9
REMARK    7  A    between atoms: _18  and  _20
REMARK    8  A    between atoms: _20  and  _21
REMARK    9  A    between atoms: _20  and  _23
REMARK   10  A    between atoms: _23  and  _24
REMARK   11  A    between atoms: _27  and  _29
REMARK   12  A    between atoms: _29  and  _30
REMARK   13  A    between atoms: _29  and  _32
REMARK   14  A    between atoms: _32  and  _33
REMARK   15  A    between atoms: _36  and  _38
REMARK   16  A    between atoms: _38  and  _39
REMARK   17  A    between atoms: _38  and  _41
REMARK   18  A    between atoms: _41  and  _42
REMARK   19  A    between atoms: _45  and  _47
REMARK   20  A    between atoms: _47  and  _48
REMARK   21  A    between atoms: _47  and  _50
REMARK   22  A    between atoms: _50  and  _51
REMARK   23  A    between atoms: _54  and  _56
REMARK   24  A    between atoms: _56  and  _57
REMARK   25  A    between atoms: _59  and  _61
REMARK   26  A    between atoms: _61  and  _62
REMARK   27  A    between atoms: _65  and  _67
REMARK   28  A    between atoms: _67  and  _68
REMARK   29  A    between atoms: _67  and  _70
REMARK   30  A    between atoms: _70  and  _71
REMARK   31  A    between atoms: _74  and  _76
REMARK   32  A    between atoms: _76  and  _77
REMARK   33  A    between atoms: _76  and  _79
REMARK   34  A    between atoms: _79  and  _80
REMARK   35  A    between atoms: _80  and  _82
REMARK   36  A    between atoms: _83  and  _85
REMARK   37  A    between atoms: _85  and  _86
REMARK   38  A    between atoms: _85  and  _88
REMARK   39  A    between atoms: _88  and  _89
REMARK   40  A    between atoms: _92  and  _94
REMARK   41  A    between atoms: _94  and  _95
REMARK   42  A    between atoms: _94  and  _97
REMARK   43  A    between atoms: _100  and  _102
REMARK   44  A    between atoms: _102  and  _103
REMARK   45  A    between atoms: _102  and  _105
REMARK   46  A    between atoms: _105  and  _106
REMARK   47  A    between atoms: _106  and  _107
REMARK   48  A    between atoms: _107  and  _108
REMARK   49  A    between atoms: _108  and  _109
REMARK   50  A    between atoms: _113  and  _115
REMARK   51  A    between atoms: _115  and  _116
REMARK   52  A    between atoms: _115  and  _118
REMARK   53  A    between atoms: _118  and  _119
REMARK   54  A    between atoms: _119  and  _120
REMARK   55  A    between atoms: _122  and  _124
REMARK   56  A    between atoms: _124  and  _125
REMARK   57  A    between atoms: _124  and  _127
REMARK   58  A    between atoms: _127  and  _128
REMARK   59  A    between atoms: _131  and  _133
REMARK   60  A    between atoms: _133  and  _134
REMARK   61  A    between atoms: _136  and  _138
REMARK   62  A    between atoms: _138  and  _139
REMARK   63  A    between atoms: _141  and  _143
REMARK   64  A    between atoms: _143  and  _144
REMARK   65  A    between atoms: _143  and  _146
REMARK   66  A    between atoms: _146  and  _147
REMARK   67  A    between atoms: _150  and  _152
REMARK   68  A    between atoms: _152  and  _153
REMARK   69  A    between atoms: _155  and  _157
REMARK   70  A    between atoms: _157  and  _158
REMARK   71  A    between atoms: _160  and  _162
REMARK   72  A    between atoms: _162  and  _163
REMARK   73  A    between atoms: _162  and  _165
REMARK   74  A    between atoms: _165  and  _166
REMARK   75  A    between atoms: _172  and  _174
REMARK   76  A    between atoms: _174  and  _175
REMARK   77  A    between atoms: _174  and  _177
REMARK   78  A    between atoms: _177  and  _178
REMARK   79  A    between atoms: _181  and  _183
REMARK   80  A    between atoms: _183  and  _184
REMARK   81  A    between atoms: _183  and  _186
REMARK   82  A    between atoms: _189  and  _191
REMARK   83  A    between atoms: _191  and  _192
REMARK   84  A    between atoms: _191  and  _194
REMARK   85  A    between atoms: _194  and  _195
REMARK   86  A    between atoms: _199  and  _200
REMARK   87  A    between atoms: _205  and  _207
REMARK   88  A    between atoms: _207  and  _208
REMARK   89  A    between atoms: _207  and  _210
REMARK   90  A    between atoms: _210  and  _211
REMARK   91  A    between atoms: _215  and  _216
REMARK   92  A    between atoms: _221  and  _223
REMARK   93  A    between atoms: _223  and  _224
REMARK   94  A    between atoms: _223  and  _226
REMARK   95  A    between atoms: _229  and  _231
REMARK   96  A    between atoms: _231  and  _232
REMARK   97  A    between atoms: _231  and  _234
REMARK   98  A    between atoms: _234  and  _235
REMARK   99  A    between atoms: _240  and  _242
REMARK  100  A    between atoms: _242  and  _243
REMARK  101  A    between atoms: _242  and  _245
REMARK  102  A    between atoms: _245  and  _246
REMARK  103  A    between atoms: _249  and  _251
REMARK  104  A    between atoms: _251  and  _252
REMARK  105  A    between atoms: _251  and  _254
REMARK  106  A    between atoms: _254  and  _255
REMARK  107  A    between atoms: _258  and  _260
REMARK  108  A    between atoms: _260  and  _261
REMARK  109  A    between atoms: _263  and  _265
REMARK  110  A    between atoms: _265  and  _266
REMARK  111  A    between atoms: _265  and  _268
REMARK  112  A    between atoms: _268  and  _269
REMARK  113  A    between atoms: _269  and  _270
REMARK  114  A    between atoms: _270  and  _271
REMARK  115  A    between atoms: _280  and  _282
REMARK  116  A    between atoms: _282  and  _283
REMARK  117  A    between atoms: _282  and  _285
REMARK  118  A    between atoms: _285  and  _286
REMARK  119  A    between atoms: _291  and  _293
REMARK  120  A    between atoms: _293  and  _294
REMARK  121  A    between atoms: _293  and  _296
REMARK  122  A    between atoms: _296  and  _297
REMARK  123  A    between atoms: _297  and  _298
REMARK  124  A    between atoms: _298  and  _299
REMARK  125  A    between atoms: _308  and  _310
REMARK  126  A    between atoms: _310  and  _311
REMARK  127  A    between atoms: _310  and  _313
REMARK  128  A    between atoms: _313  and  _314
REMARK  129  A    between atoms: _317  and  _319
REMARK  130  A    between atoms: _319  and  _320
REMARK  131  A    between atoms: _319  and  _322
REMARK  132  A    between atoms: _322  and  _323
REMARK  133  A    between atoms: _326  and  _328
REMARK  134  A    between atoms: _328  and  _329
REMARK  135  A    between atoms: _328  and  _331
REMARK  136  A    between atoms: _331  and  _332
REMARK  137  A    between atoms: _335  and  _337
REMARK  138  A    between atoms: _337  and  _338
REMARK  139  A    between atoms: _337  and  _340
REMARK  140  A    between atoms: _340  and  _341
REMARK  141  A    between atoms: _344  and  _346
REMARK  142  A    between atoms: _346  and  _347
REMARK  143  A    between atoms: _349  and  _351
REMARK  144  A    between atoms: _351  and  _352
REMARK  145  A    between atoms: _355  and  _357
REMARK  146  A    between atoms: _357  and  _358
REMARK  147  A    between atoms: _357  and  _360
REMARK  148  A    between atoms: _360  and  _361
REMARK  149  A    between atoms: _364  and  _366
REMARK  150  A    between atoms: _366  and  _367
REMARK  151  A    between atoms: _366  and  _369
REMARK  152  A    between atoms: _369  and  _370
REMARK  153  A    between atoms: _370  and  _372
REMARK  154  A    between atoms: _373  and  _375
REMARK  155  A    between atoms: _375  and  _376
REMARK  156  A    between atoms: _375  and  _378
REMARK  157  A    between atoms: _378  and  _379
REMARK  158  A    between atoms: _382  and  _384
REMARK  159  A    between atoms: _384  and  _385
REMARK  160  A    between atoms: _384  and  _387
REMARK  161  A    between atoms: _390  and  _392
REMARK  162  A    between atoms: _392  and  _393
REMARK  163  A    between atoms: _392  and  _395
REMARK  164  A    between atoms: _395  and  _396
REMARK  165  A    between atoms: _396  and  _397
REMARK  166  A    between atoms: _397  and  _398
REMARK  167  A    between atoms: _398  and  _399
REMARK  168  A    between atoms: _403  and  _405
REMARK  169  A    between atoms: _405  and  _406
REMARK  170  A    between atoms: _405  and  _408
REMARK  171  A    between atoms: _408  and  _409
REMARK  172  A    between atoms: _409  and  _410
REMARK  173  A    between atoms: _412  and  _414
REMARK  174  A    between atoms: _414  and  _415
REMARK  175  A    between atoms: _414  and  _417
REMARK  176  A    between atoms: _417  and  _418
REMARK  177  A    between atoms: _421  and  _423
REMARK  178  A    between atoms: _423  and  _424
REMARK  179  A    between atoms: _426  and  _428
REMARK  180  A    between atoms: _428  and  _429
REMARK  181  A    between atoms: _431  and  _433
REMARK  182  A    between atoms: _433  and  _434
REMARK  183  A    between atoms: _433  and  _436
REMARK  184  A    between atoms: _436  and  _437
REMARK  185  A    between atoms: _440  and  _442
REMARK  186  A    between atoms: _442  and  _443
REMARK  187  A    between atoms: _445  and  _447
REMARK  188  A    between atoms: _447  and  _448
REMARK  189  A    between atoms: _450  and  _452
REMARK  190  A    between atoms: _452  and  _453
REMARK  191  A    between atoms: _452  and  _455
REMARK  192  A    between atoms: _455  and  _456
REMARK  193  A    between atoms: _459  and  _461
REMARK  194  A    between atoms: _461  and  _462
REMARK  195  A    between atoms: _461  and  _464
REMARK  196  A    between atoms: _464  and  _465
REMARK  197  A    between atoms: _468  and  _470
REMARK  198  A    between atoms: _470  and  _471
REMARK  199  A    between atoms: _470  and  _473
REMARK  200  A    between atoms: _473  and  _474
REMARK  201  A    between atoms: _478  and  _479
REMARK  202  A    between atoms: _484  and  _486
REMARK  203  A    between atoms: _486  and  _487
REMARK  204  A    between atoms: _486  and  _489
REMARK  205  A    between atoms: _492  and  _494
REMARK  206  A    between atoms: _494  and  _495
REMARK  207  A    between atoms: _494  and  _497
REMARK  208  A    between atoms: _497  and  _498
REMARK  209  A    between atoms: _503  and  _505
REMARK  210  A    between atoms: _505  and  _506
REMARK  211  A    between atoms: _505  and  _508
REMARK  212  A    between atoms: _508  and  _509
REMARK  213  A    between atoms: _512  and  _514
REMARK  214  A    between atoms: _514  and  _515
REMARK  215  A    between atoms: _514  and  _517
REMARK  216  A    between atoms: _517  and  _518
REMARK  217  A    between atoms: _521  and  _523
REMARK  218  A    between atoms: _523  and  _524
REMARK  219  A    between atoms: _526  and  _528
REMARK  220  A    between atoms: _528  and  _529
REMARK  221  A    between atoms: _528  and  _531
REMARK  222  A    between atoms: _531  and  _532
REMARK  223  A    between atoms: _532  and  _533
REMARK  224  A    between atoms: _533  and  _534
REMARK  225  A    between atoms: _543  and  _545
REMARK  226  A    between atoms: _545  and  _546
REMARK  227  A    between atoms: _545  and  _548
REMARK  228  A    between atoms: _548  and  _549
REMARK                            x       y       z     vdW  Elec       q    Type
REMARK                         _______ _______ _______ _____ _____    ______ ____
ROOT
ATOM      1  O   HOH     1     -12.883  12.639  35.248  0.00  0.00    +0.000 OA
ENDROOT
TORSDOF 0
REMARK  Name = ../refined-set-2016/4ll3/4ll3_pocket.pdb
REMARK  228 active torsions:
REMARK  status: ('A' for Active; 'I' for Inactive)
REMARK    1  A    between atoms: _1  and  _3
REMARK    2  A    between atoms: _3  and  _4
REMARK    3  A    between atoms: _3  and  _6
REMARK    4  A    between atoms: _6  and  _7
REMARK    5  A    between atoms: _7  and  _8
REMARK    6  A    between atoms: _8  and  _9
REMARK    7  A    between atoms: _18  and  _20
REMARK    8  A    between atoms: _20  and  _21
REMARK    9  A    between atoms: _20  and  _23
REMARK   10  A    between atoms: _23  and  _24
REMARK   11  A    between atoms: _27  and  _29
REMARK   12  A    between atoms: _29  and  _30
REMARK   13  A    between atoms: _29  and  _32
REMARK   14  A    between atoms: _32  and  _33
REMARK   15  A    between atoms: _36  and  _38
REMARK   16  A    between atoms: _38  and  _39
REMARK   17  A    between atoms: _38  and  _41
REMARK   18  A    between atoms: _41  and  _42
REMARK   19  A    between atoms: _45  and  _47
REMARK   20  A    between atoms: _47  and  _48
REMARK   21  A    between atoms: _47  and  _50
REMARK   22  A    between atoms: _50  and  _51
REMARK   23  A    between atoms: _54  and  _56
REMARK   24  A    between atoms: _56  and  _57
REMARK   25  A    between atoms: _59  and  _61
REMARK   26  A    between atoms: _61  and  _62
REMARK   27  A    between atoms: _65  and  _67
REMARK   28  A    between atoms: _67  and  _68
REMARK   29  A    between atoms: _67  and  _70
REMARK   30  A    between atoms: _70  and  _71
REMARK   31  A    between atoms: _74  and  _76
REMARK   32  A    between atoms: _76  and  _77
REMARK   33  A    between atoms: _76  and  _79
REMARK   34  A    between atoms: _79  and  _80
REMARK   35  A    between atoms: _80  and  _82
REMARK   36  A    between atoms: _83  and  _85
REMARK   37  A    between atoms: _85  and  _86
REMARK   38  A    between atoms: _85  and  _88
REMARK   39  A    between atoms: _88  and  _89
REMARK   40  A    between atoms: _92  and  _94
REMARK   41  A    between atoms: _94  and  _95
REMARK   42  A    between atoms: _94  and  _97
REMARK   43  A    between atoms: _100  and  _102
REMARK   44  A    between atoms: _102  and  _103
REMARK   45  A    between atoms: _102  and  _105
REMARK   46  A    between atoms: _105  and  _106
REMARK   47  A    between atoms: _106  and  _107
REMARK   48  A    between atoms: _107  and  _108
REMARK   49  A    between atoms: _108  and  _109
REMARK   50  A    between atoms: _113  and  _115
REMARK   51  A    between atoms: _115  and  _116
REMARK   52  A    between atoms: _115  and  _118
REMARK   53  A    between atoms: _118  and  _119
REMARK   54  A    between atoms: _119  and  _120
REMARK   55  A    between atoms: _122  and  _124
REMARK   56  A    between atoms: _124  and  _125
REMARK   57  A    between atoms: _124  and  _127
REMARK   58  A    between atoms: _127  and  _128
REMARK   59  A    between atoms: _131  and  _133
REMARK   60  A    between atoms: _133  and  _134
REMARK   61  A    between atoms: _136  and  _138
REMARK   62  A    between atoms: _138  and  _139
REMARK   63  A    between atoms: _141  and  _143
REMARK   64  A    between atoms: _143  and  _144
REMARK   65  A    between atoms: _143  and  _146
REMARK   66  A    between atoms: _146  and  _147
REMARK   67  A    between atoms: _150  and  _152
REMARK   68  A    between atoms: _152  and  _153
REMARK   69  A    between atoms: _155  and  _157
REMARK   70  A    between atoms: _157  and  _158
REMARK   71  A    between atoms: _160  and  _162
REMARK   72  A    between atoms: _162  and  _163
REMARK   73  A    between atoms: _162  and  _165
REMARK   74  A    between atoms: _165  and  _166
REMARK   75  A    between atoms: _172  and  _174
REMARK   76  A    between atoms: _174  and  _175
REMARK   77  A    between atoms: _174  and  _177
REMARK   78  A    between atoms: _177  and  _178
REMARK   79  A    between atoms: _181  and  _183
REMARK   80  A    between atoms: _183  and  _184
REMARK   81  A    between atoms: _183  and  _186
REMARK   82  A    between atoms: _189  and  _191
REMARK   83  A    between atoms: _191  and  _192
REMARK   84  A    between atoms: _191  and  _194
REMARK   85  A    between atoms: _194  and  _195
REMARK   86  A    between atoms: _199  and  _200
REMARK   87  A    between atoms: _205  and  _207
REMARK   88  A    between atoms: _207  and  _208
REMARK   89  A    between atoms: _207  and  _210
REMARK   90  A    between atoms: _210  and  _211
REMARK   91  A    between atoms: _215  and  _216
REMARK   92  A    between atoms: _221  and  _223
REMARK   93  A    between atoms: _223  and  _224
REMARK   94  A    between atoms: _223  and  _226
REMARK   95  A    between atoms: _229  and  _231
REMARK   96  A    between atoms: _231  and  _232
REMARK   97  A    between atoms: _231  and  _234
REMARK   98  A    between atoms: _234  and  _235
REMARK   99  A    between atoms: _240  and  _242
REMARK  100  A    between atoms: _242  and  _243
REMARK  101  A    between atoms: _242  and  _245
REMARK  102  A    between atoms: _245  and  _246
REMARK  103  A    between atoms: _249  and  _251
REMARK  104  A    between atoms: _251  and  _252
REMARK  105  A    between atoms: _251  and  _254
REMARK  106  A    between atoms: _254  and  _255
REMARK  107  A    between atoms: _258  and  _260
REMARK  108  A    between atoms: _260  and  _261
REMARK  109  A    between atoms: _263  and  _265
REMARK  110  A    between atoms: _265  and  _266
REMARK  111  A    between atoms: _265  and  _268
REMARK  112  A    between atoms: _268  and  _269
REMARK  113  A    between atoms: _269  and  _270
REMARK  114  A    between atoms: _270  and  _271
REMARK  115  A    between atoms: _280  and  _282
REMARK  116  A    between atoms: _282  and  _283
REMARK  117  A    between atoms: _282  and  _285
REMARK  118  A    between atoms: _285  and  _286
REMARK  119  A    between atoms: _291  and  _293
REMARK  120  A    between atoms: _293  and  _294
REMARK  121  A    between atoms: _293  and  _296
REMARK  122  A    between atoms: _296  and  _297
REMARK  123  A    between atoms: _297  and  _298
REMARK  124  A    between atoms: _298  and  _299
REMARK  125  A    between atoms: _308  and  _310
REMARK  126  A    between atoms: _310  and  _311
REMARK  127  A    between atoms: _310  and  _313
REMARK  128  A    between atoms: _313  and  _314
REMARK  129  A    between atoms: _317  and  _319
REMARK  130  A    between atoms: _319  and  _320
REMARK  131  A    between atoms: _319  and  _322
REMARK  132  A    between atoms: _322  and  _323
REMARK  133  A    between atoms: _326  and  _328
REMARK  134  A    between atoms: _328  and  _329
REMARK  135  A    between atoms: _328  and  _331
REMARK  136  A    between atoms: _331  and  _332
REMARK  137  A    between atoms: _335  and  _337
REMARK  138  A    between atoms: _337  and  _338
REMARK  139  A    between atoms: _337  and  _340
REMARK  140  A    between atoms: _340  and  _341
REMARK  141  A    between atoms: _344  and  _346
REMARK  142  A    between atoms: _346  and  _347
REMARK  143  A    between atoms: _349  and  _351
REMARK  144  A    between atoms: _351  and  _352
REMARK  145  A    between atoms: _355  and  _357
REMARK  146  A    between atoms: _357  and  _358
REMARK  147  A    between atoms: _357  and  _360
REMARK  148  A    between atoms: _360  and  _361
REMARK  149  A    between atoms: _364  and  _366
REMARK  150  A    between atoms: _366  and  _367
REMARK  151  A    between atoms: _366  and  _369
REMARK  152  A    between atoms: _369  and  _370
REMARK  153  A    between atoms: _370  and  _372
REMARK  154  A    between atoms: _373  and  _375
REMARK  155  A    between atoms: _375  and  _376
REMARK  156  A    between atoms: _375  and  _378
REMARK  157  A    between atoms: _378  and  _379
REMARK  158  A    between atoms: _382  and  _384
REMARK  159  A    between atoms: _384  and  _385
REMARK  160  A    between atoms: _384  and  _387
REMARK  161  A    between atoms: _390  and  _392
REMARK  162  A    between atoms: _392  and  _393
REMARK  163  A    between atoms: _392  and  _395
REMARK  164  A    between atoms: _395  and  _396
REMARK  165  A    between atoms: _396  and  _397
REMARK  166  A    between atoms: _397  and  _398
REMARK  167  A    between atoms: _398  and  _399
REMARK  168  A    between atoms: _403  and  _405
REMARK  169  A    between atoms: _405  and  _406
REMARK  170  A    between atoms: _405  and  _408
REMARK  171  A    between atoms: _408  and  _409
REMARK  172  A    between atoms: _409  and  _410
REMARK  173  A    between atoms: _412  and  _414
REMARK  174  A    between atoms: _414  and  _415
REMARK  175  A    between atoms: _414  and  _417
REMARK  176  A    between atoms: _417  and  _418
REMARK  177  A    between atoms: _421  and  _423
REMARK  178  A    between atoms: _423  and  _424
REMARK  179  A    between atoms: _426  and  _428
REMARK  180  A    between atoms: _428  and  _429
REMARK  181  A    between atoms: _431  and  _433
REMARK  182  A    between atoms: _433  and  _434
REMARK  183  A    between atoms: _433  and  _436
REMARK  184  A    between atoms: _436  and  _437
REMARK  185  A    between atoms: _440  and  _442
REMARK  186  A    between atoms: _442  and  _443
REMARK  187  A    between atoms: _445  and  _447
REMARK  188  A    between atoms: _447  and  _448
REMARK  189  A    between atoms: _450  and  _452
REMARK  190  A    between atoms: _452  and  _453
REMARK  191  A    between atoms: _452  and  _455
REMARK  192  A    between atoms: _455  and  _456
REMARK  193  A    between atoms: _459  and  _461
REMARK  194  A    between atoms: _461  and  _462
REMARK  195  A    between atoms: _461  and  _464
REMARK  196  A    between atoms: _464  and  _465
REMARK  197  A    between atoms: _468  and  _470
REMARK  198  A    between atoms: _470  and  _471
REMARK  199  A    between atoms: _470  and  _473
REMARK  200  A    between atoms: _473  and  _474
REMARK  201  A    between atoms: _478  and  _479
REMARK  202  A    between atoms: _484  and  _486
REMARK  203  A    between atoms: _486  and  _487
REMARK  204  A    between atoms: _486  and  _489
REMARK  205  A    between atoms: _492  and  _494
REMARK  206  A    between atoms: _494  and  _495
REMARK  207  A    between atoms: _494  and  _497
REMARK  208  A    between atoms: _497  and  _498
REMARK  209  A    between atoms: _503  and  _505
REMARK  210  A    between atoms: _505  and  _506
REMARK  211  A    between atoms: _505  and  _508
REMARK  212  A    between atoms: _508  and  _509
REMARK  213  A    between atoms: _512  and  _514
REMARK  214  A    between atoms: _514  and  _515
REMARK  215  A    between atoms: _514  and  _517
REMARK  216  A    between atoms: _517  and  _518
REMARK  217  A    between atoms: _521  and  _523
REMARK  218  A    between atoms: _523  and  _524
REMARK  219  A    between atoms: _526  and  _528
REMARK  220  A    between atoms: _528  and  _529
REMARK  221  A    between atoms: _528  and  _531
REMARK  222  A    between atoms: _531  and  _532
REMARK  223  A    between atoms: _532  and  _533
REMARK  224  A    between atoms: _533  and  _534
REMARK  225  A    between atoms: _543  and  _545
REMARK  226  A    between atoms: _545  and  _546
REMARK  227  A    between atoms: _545  and  _548
REMARK  228  A    between atoms: _548  and  _549
REMARK                            x       y       z     vdW  Elec       q    Type
REMARK                         _______ _______ _______ _____ _____    ______ ____
ROOT
ATOM      1  O   HOH     1      -1.712  18.451  22.411  0.00  0.00    +0.000 OA
ENDROOT
TORSDOF 0
REMARK  Name = ../refined-set-2016/4ll3/4ll3_pocket.pdb
REMARK  228 active torsions:
REMARK  status: ('A' for Active; 'I' for Inactive)
REMARK    1  A    between atoms: _1  and  _3
REMARK    2  A    between atoms: _3  and  _4
REMARK    3  A    between atoms: _3  and  _6
REMARK    4  A    between atoms: _6  and  _7
REMARK    5  A    between atoms: _7  and  _8
REMARK    6  A    between atoms: _8  and  _9
REMARK    7  A    between atoms: _18  and  _20
REMARK    8  A    between atoms: _20  and  _21
REMARK    9  A    between atoms: _20  and  _23
REMARK   10  A    between atoms: _23  and  _24
REMARK   11  A    between atoms: _27  and  _29
REMARK   12  A    between atoms: _29  and  _30
REMARK   13  A    between atoms: _29  and  _32
REMARK   14  A    between atoms: _32  and  _33
REMARK   15  A    between atoms: _36  and  _38
REMARK   16  A    between atoms: _38  and  _39
REMARK   17  A    between atoms: _38  and  _41
REMARK   18  A    between atoms: _41  and  _42
REMARK   19  A    between atoms: _45  and  _47
REMARK   20  A    between atoms: _47  and  _48
REMARK   21  A    between atoms: _47  and  _50
REMARK   22  A    between atoms: _50  and  _51
REMARK   23  A    between atoms: _54  and  _56
REMARK   24  A    between atoms: _56  and  _57
REMARK   25  A    between atoms: _59  and  _61
REMARK   26  A    between atoms: _61  and  _62
REMARK   27  A    between atoms: _65  and  _67
REMARK   28  A    between atoms: _67  and  _68
REMARK   29  A    between atoms: _67  and  _70
REMARK   30  A    between atoms: _70  and  _71
REMARK   31  A    between atoms: _74  and  _76
REMARK   32  A    between atoms: _76  and  _77
REMARK   33  A    between atoms: _76  and  _79
REMARK   34  A    between atoms: _79  and  _80
REMARK   35  A    between atoms: _80  and  _82
REMARK   36  A    between atoms: _83  and  _85
REMARK   37  A    between atoms: _85  and  _86
REMARK   38  A    between atoms: _85  and  _88
REMARK   39  A    between atoms: _88  and  _89
REMARK   40  A    between atoms: _92  and  _94
REMARK   41  A    between atoms: _94  and  _95
REMARK   42  A    between atoms: _94  and  _97
REMARK   43  A    between atoms: _100  and  _102
REMARK   44  A    between atoms: _102  and  _103
REMARK   45  A    between atoms: _102  and  _105
REMARK   46  A    between atoms: _105  and  _106
REMARK   47  A    between atoms: _106  and  _107
REMARK   48  A    between atoms: _107  and  _108
REMARK   49  A    between atoms: _108  and  _109
REMARK   50  A    between atoms: _113  and  _115
REMARK   51  A    between atoms: _115  and  _116
REMARK   52  A    between atoms: _115  and  _118
REMARK   53  A    between atoms: _118  and  _119
REMARK   54  A    between atoms: _119  and  _120
REMARK   55  A    between atoms: _122  and  _124
REMARK   56  A    between atoms: _124  and  _125
REMARK   57  A    between atoms: _124  and  _127
REMARK   58  A    between atoms: _127  and  _128
REMARK   59  A    between atoms: _131  and  _133
REMARK   60  A    between atoms: _133  and  _134
REMARK   61  A    between atoms: _136  and  _138
REMARK   62  A    between atoms: _138  and  _139
REMARK   63  A    between atoms: _141  and  _143
REMARK   64  A    between atoms: _143  and  _144
REMARK   65  A    between atoms: _143  and  _146
REMARK   66  A    between atoms: _146  and  _147
REMARK   67  A    between atoms: _150  and  _152
REMARK   68  A    between atoms: _152  and  _153
REMARK   69  A    between atoms: _155  and  _157
REMARK   70  A    between atoms: _157  and  _158
REMARK   71  A    between atoms: _160  and  _162
REMARK   72  A    between atoms: _162  and  _163
REMARK   73  A    between atoms: _162  and  _165
REMARK   74  A    between atoms: _165  and  _166
REMARK   75  A    between atoms: _172  and  _174
REMARK   76  A    between atoms: _174  and  _175
REMARK   77  A    between atoms: _174  and  _177
REMARK   78  A    between atoms: _177  and  _178
REMARK   79  A    between atoms: _181  and  _183
REMARK   80  A    between atoms: _183  and  _184
REMARK   81  A    between atoms: _183  and  _186
REMARK   82  A    between atoms: _189  and  _191
REMARK   83  A    between atoms: _191  and  _192
REMARK   84  A    between atoms: _191  and  _194
REMARK   85  A    between atoms: _194  and  _195
REMARK   86  A    between atoms: _199  and  _200
REMARK   87  A    between atoms: _205  and  _207
REMARK   88  A    between atoms: _207  and  _208
REMARK   89  A    between atoms: _207  and  _210
REMARK   90  A    between atoms: _210  and  _211
REMARK   91  A    between atoms: _215  and  _216
REMARK   92  A    between atoms: _221  and  _223
REMARK   93  A    between atoms: _223  and  _224
REMARK   94  A    between atoms: _223  and  _226
REMARK   95  A    between atoms: _229  and  _231
REMARK   96  A    between atoms: _231  and  _232
REMARK   97  A    between atoms: _231  and  _234
REMARK   98  A    between atoms: _234  and  _235
REMARK   99  A    between atoms: _240  and  _242
REMARK  100  A    between atoms: _242  and  _243
REMARK  101  A    between atoms: _242  and  _245
REMARK  102  A    between atoms: _245  and  _246
REMARK  103  A    between atoms: _249  and  _251
REMARK  104  A    between atoms: _251  and  _252
REMARK  105  A    between atoms: _251  and  _254
REMARK  106  A    between atoms: _254  and  _255
REMARK  107  A    between atoms: _258  and  _260
REMARK  108  A    between atoms: _260  and  _261
REMARK  109  A    between atoms: _263  and  _265
REMARK  110  A    between atoms: _265  and  _266
REMARK  111  A    between atoms: _265  and  _268
REMARK  112  A    between atoms: _268  and  _269
REMARK  113  A    between atoms: _269  and  _270
REMARK  114  A    between atoms: _270  and  _271
REMARK  115  A    between atoms: _280  and  _282
REMARK  116  A    between atoms: _282  and  _283
REMARK  117  A    between atoms: _282  and  _285
REMARK  118  A    between atoms: _285  and  _286
REMARK  119  A    between atoms: _291  and  _293
REMARK  120  A    between atoms: _293  and  _294
REMARK  121  A    between atoms: _293  and  _296
REMARK  122  A    between atoms: _296  and  _297
REMARK  123  A    between atoms: _297  and  _298
REMARK  124  A    between atoms: _298  and  _299
REMARK  125  A    between atoms: _308  and  _310
REMARK  126  A    between atoms: _310  and  _311
REMARK  127  A    between atoms: _310  and  _313
REMARK  128  A    between atoms: _313  and  _314
REMARK  129  A    between atoms: _317  and  _319
REMARK  130  A    between atoms: _319  and  _320
REMARK  131  A    between atoms: _319  and  _322
REMARK  132  A    between atoms: _322  and  _323
REMARK  133  A    between atoms: _326  and  _328
REMARK  134  A    between atoms: _328  and  _329
REMARK  135  A    between atoms: _328  and  _331
REMARK  136  A    between atoms: _331  and  _332
REMARK  137  A    between atoms: _335  and  _337
REMARK  138  A    between atoms: _337  and  _338
REMARK  139  A    between atoms: _337  and  _340
REMARK  140  A    between atoms: _340  and  _341
REMARK  141  A    between atoms: _344  and  _346
REMARK  142  A    between atoms: _346  and  _347
REMARK  143  A    between atoms: _349  and  _351
REMARK  144  A    between atoms: _351  and  _352
REMARK  145  A    between atoms: _355  and  _357
REMARK  146  A    between atoms: _357  and  _358
REMARK  147  A    between atoms: _357  and  _360
REMARK  148  A    between atoms: _360  and  _361
REMARK  149  A    between atoms: _364  and  _366
REMARK  150  A    between atoms: _366  and  _367
REMARK  151  A    between atoms: _366  and  _369
REMARK  152  A    between atoms: _369  and  _370
REMARK  153  A    between atoms: _370  and  _372
REMARK  154  A    between atoms: _373  and  _375
REMARK  155  A    between atoms: _375  and  _376
REMARK  156  A    between atoms: _375  and  _378
REMARK  157  A    between atoms: _378  and  _379
REMARK  158  A    between atoms: _382  and  _384
REMARK  159  A    between atoms: _384  and  _385
REMARK  160  A    between atoms: _384  and  _387
REMARK  161  A    between atoms: _390  and  _392
REMARK  162  A    between atoms: _392  and  _393
REMARK  163  A    between atoms: _392  and  _395
REMARK  164  A    between atoms: _395  and  _396
REMARK  165  A    between atoms: _396  and  _397
REMARK  166  A    between atoms: _397  and  _398
REMARK  167  A    between atoms: _398  and  _399
REMARK  168  A    between atoms: _403  and  _405
REMARK  169  A    between atoms: _405  and  _406
REMARK  170  A    between atoms: _405  and  _408
REMARK  171  A    between atoms: _408  and  _409
REMARK  172  A    between atoms: _409  and  _410
REMARK  173  A    between atoms: _412  and  _414
REMARK  174  A    between atoms: _414  and  _415
REMARK  175  A    between atoms: _414  and  _417
REMARK  176  A    between atoms: _417  and  _418
REMARK  177  A    between atoms: _421  and  _423
REMARK  178  A    between atoms: _423  and  _424
REMARK  179  A    between atoms: _426  and  _428
REMARK  180  A    between atoms: _428  and  _429
REMARK  181  A    between atoms: _431  and  _433
REMARK  182  A    between atoms: _433  and  _434
REMARK  183  A    between atoms: _433  and  _436
REMARK  184  A    between atoms: _436  and  _437
REMARK  185  A    between atoms: _440  and  _442
REMARK  186  A    between atoms: _442  and  _443
REMARK  187  A    between atoms: _445  and  _447
REMARK  188  A    between atoms: _447  and  _448
REMARK  189  A    between atoms: _450  and  _452
REMARK  190  A    between atoms: _452  and  _453
REMARK  191  A    between atoms: _452  and  _455
REMARK  192  A    between atoms: _455  and  _456
REMARK  193  A    between atoms: _459  and  _461
REMARK  194  A    between atoms: _461  and  _462
REMARK  195  A    between atoms: _461  and  _464
REMARK  196  A    between atoms: _464  and  _465
REMARK  197  A    between atoms: _468  and  _470
REMARK  198  A    between atoms: _470  and  _471
REMARK  199  A    between atoms: _470  and  _473
REMARK  200  A    between atoms: _473  and  _474
REMARK  201  A    between atoms: _478  and  _479
REMARK  202  A    between atoms: _484  and  _486
REMARK  203  A    between atoms: _486  and  _487
REMARK  204  A    between atoms: _486  and  _489
REMARK  205  A    between atoms: _492  and  _494
REMARK  206  A    between atoms: _494  and  _495
REMARK  207  A    between atoms: _494  and  _497
REMARK  208  A    between atoms: _497  and  _498
REMARK  209  A    between atoms: _503  and  _505
REMARK  210  A    between atoms: _505  and  _506
REMARK  211  A    between atoms: _505  and  _508
REMARK  212  A    between atoms: _508  and  _509
REMARK  213  A    between atoms: _512  and  _514
REMARK  214  A    between atoms: _514  and  _515
REMARK  215  A    between atoms: _514  and  _517
REMARK  216  A    between atoms: _517  and  _518
REMARK  217  A    between atoms: _521  and  _523
REMARK  218  A    between atoms: _523  and  _524
REMARK  219  A    between atoms: _526  and  _528
REMARK  220  A    between atoms: _528  and  _529
REMARK  221  A    between atoms: _528  and  _531
REMARK  222  A    between atoms: _531  and  _532
REMARK  223  A    between atoms: _532  and  _533
REMARK  224  A    between atoms: _533  and  _534
REMARK  225  A    between atoms: _543  and  _545
REMARK  226  A    between atoms: _545  and  _546
REMARK  227  A    between atoms: _545  and  _548
REMARK  228  A    between atoms: _548  and  _549
REMARK                            x       y       z     vdW  Elec       q    Type
REMARK                         _______ _______ _______ _____ _____    ______ ____
ROOT
ATOM      1  O   HOH     1     -10.683   4.872  26.690  0.00  0.00    +0.000 OA
ENDROOT
TORSDOF 0
REMARK  Name = ../refined-set-2016/4ll3/4ll3_pocket.pdb
REMARK  228 active torsions:
REMARK  status: ('A' for Active; 'I' for Inactive)
REMARK    1  A    between atoms: _1  and  _3
REMARK    2  A    between atoms: _3  and  _4
REMARK    3  A    between atoms: _3  and  _6
REMARK    4  A    between atoms: _6  and  _7
REMARK    5  A    between atoms: _7  and  _8
REMARK    6  A    between atoms: _8  and  _9
REMARK    7  A    between atoms: _18  and  _20
REMARK    8  A    between atoms: _20  and  _21
REMARK    9  A    between atoms: _20  and  _23
REMARK   10  A    between atoms: _23  and  _24
REMARK   11  A    between atoms: _27  and  _29
REMARK   12  A    between atoms: _29  and  _30
REMARK   13  A    between atoms: _29  and  _32
REMARK   14  A    between atoms: _32  and  _33
REMARK   15  A    between atoms: _36  and  _38
REMARK   16  A    between atoms: _38  and  _39
REMARK   17  A    between atoms: _38  and  _41
REMARK   18  A    between atoms: _41  and  _42
REMARK   19  A    between atoms: _45  and  _47
REMARK   20  A    between atoms: _47  and  _48
REMARK   21  A    between atoms: _47  and  _50
REMARK   22  A    between atoms: _50  and  _51
REMARK   23  A    between atoms: _54  and  _56
REMARK   24  A    between atoms: _56  and  _57
REMARK   25  A    between atoms: _59  and  _61
REMARK   26  A    between atoms: _61  and  _62
REMARK   27  A    between atoms: _65  and  _67
REMARK   28  A    between atoms: _67  and  _68
REMARK   29  A    between atoms: _67  and  _70
REMARK   30  A    between atoms: _70  and  _71
REMARK   31  A    between atoms: _74  and  _76
REMARK   32  A    between atoms: _76  and  _77
REMARK   33  A    between atoms: _76  and  _79
REMARK   34  A    between atoms: _79  and  _80
REMARK   35  A    between atoms: _80  and  _82
REMARK   36  A    between atoms: _83  and  _85
REMARK   37  A    between atoms: _85  and  _86
REMARK   38  A    between atoms: _85  and  _88
REMARK   39  A    between atoms: _88  and  _89
REMARK   40  A    between atoms: _92  and  _94
REMARK   41  A    between atoms: _94  and  _95
REMARK   42  A    between atoms: _94  and  _97
REMARK   43  A    between atoms: _100  and  _102
REMARK   44  A    between atoms: _102  and  _103
REMARK   45  A    between atoms: _102  and  _105
REMARK   46  A    between atoms: _105  and  _106
REMARK   47  A    between atoms: _106  and  _107
REMARK   48  A    between atoms: _107  and  _108
REMARK   49  A    between atoms: _108  and  _109
REMARK   50  A    between atoms: _113  and  _115
REMARK   51  A    between atoms: _115  and  _116
REMARK   52  A    between atoms: _115  and  _118
REMARK   53  A    between atoms: _118  and  _119
REMARK   54  A    between atoms: _119  and  _120
REMARK   55  A    between atoms: _122  and  _124
REMARK   56  A    between atoms: _124  and  _125
REMARK   57  A    between atoms: _124  and  _127
REMARK   58  A    between atoms: _127  and  _128
REMARK   59  A    between atoms: _131  and  _133
REMARK   60  A    between atoms: _133  and  _134
REMARK   61  A    between atoms: _136  and  _138
REMARK   62  A    between atoms: _138  and  _139
REMARK   63  A    between atoms: _141  and  _143
REMARK   64  A    between atoms: _143  and  _144
REMARK   65  A    between atoms: _143  and  _146
REMARK   66  A    between atoms: _146  and  _147
REMARK   67  A    between atoms: _150  and  _152
REMARK   68  A    between atoms: _152  and  _153
REMARK   69  A    between atoms: _155  and  _157
REMARK   70  A    between atoms: _157  and  _158
REMARK   71  A    between atoms: _160  and  _162
REMARK   72  A    between atoms: _162  and  _163
REMARK   73  A    between atoms: _162  and  _165
REMARK   74  A    between atoms: _165  and  _166
REMARK   75  A    between atoms: _172  and  _174
REMARK   76  A    between atoms: _174  and  _175
REMARK   77  A    between atoms: _174  and  _177
REMARK   78  A    between atoms: _177  and  _178
REMARK   79  A    between atoms: _181  and  _183
REMARK   80  A    between atoms: _183  and  _184
REMARK   81  A    between atoms: _183  and  _186
REMARK   82  A    between atoms: _189  and  _191
REMARK   83  A    between atoms: _191  and  _192
REMARK   84  A    between atoms: _191  and  _194
REMARK   85  A    between atoms: _194  and  _195
REMARK   86  A    between atoms: _199  and  _200
REMARK   87  A    between atoms: _205  and  _207
REMARK   88  A    between atoms: _207  and  _208
REMARK   89  A    between atoms: _207  and  _210
REMARK   90  A    between atoms: _210  and  _211
REMARK   91  A    between atoms: _215  and  _216
REMARK   92  A    between atoms: _221  and  _223
REMARK   93  A    between atoms: _223  and  _224
REMARK   94  A    between atoms: _223  and  _226
REMARK   95  A    between atoms: _229  and  _231
REMARK   96  A    between atoms: _231  and  _232
REMARK   97  A    between atoms: _231  and  _234
REMARK   98  A    between atoms: _234  and  _235
REMARK   99  A    between atoms: _240  and  _242
REMARK  100  A    between atoms: _242  and  _243
REMARK  101  A    between atoms: _242  and  _245
REMARK  102  A    between atoms: _245  and  _246
REMARK  103  A    between atoms: _249  and  _251
REMARK  104  A    between atoms: _251  and  _252
REMARK  105  A    between atoms: _251  and  _254
REMARK  106  A    between atoms: _254  and  _255
REMARK  107  A    between atoms: _258  and  _260
REMARK  108  A    between atoms: _260  and  _261
REMARK  109  A    between atoms: _263  and  _265
REMARK  110  A    between atoms: _265  and  _266
REMARK  111  A    between atoms: _265  and  _268
REMARK  112  A    between atoms: _268  and  _269
REMARK  113  A    between atoms: _269  and  _270
REMARK  114  A    between atoms: _270  and  _271
REMARK  115  A    between atoms: _280  and  _282
REMARK  116  A    between atoms: _282  and  _283
REMARK  117  A    between atoms: _282  and  _285
REMARK  118  A    between atoms: _285  and  _286
REMARK  119  A    between atoms: _291  and  _293
REMARK  120  A    between atoms: _293  and  _294
REMARK  121  A    between atoms: _293  and  _296
REMARK  122  A    between atoms: _296  and  _297
REMARK  123  A    between atoms: _297  and  _298
REMARK  124  A    between atoms: _298  and  _299
REMARK  125  A    between atoms: _308  and  _310
REMARK  126  A    between atoms: _310  and  _311
REMARK  127  A    between atoms: _310  and  _313
REMARK  128  A    between atoms: _313  and  _314
REMARK  129  A    between atoms: _317  and  _319
REMARK  130  A    between atoms: _319  and  _320
REMARK  131  A    between atoms: _319  and  _322
REMARK  132  A    between atoms: _322  and  _323
REMARK  133  A    between atoms: _326  and  _328
REMARK  134  A    between atoms: _328  and  _329
REMARK  135  A    between atoms: _328  and  _331
REMARK  136  A    between atoms: _331  and  _332
REMARK  137  A    between atoms: _335  and  _337
REMARK  138  A    between atoms: _337  and  _338
REMARK  139  A    between atoms: _337  and  _340
REMARK  140  A    between atoms: _340  and  _341
REMARK  141  A    between atoms: _344  and  _346
REMARK  142  A    between atoms: _346  and  _347
REMARK  143  A    between atoms: _349  and  _351
REMARK  144  A    between atoms: _351  and  _352
REMARK  145  A    between atoms: _355  and  _357
REMARK  146  A    between atoms: _357  and  _358
REMARK  147  A    between atoms: _357  and  _360
REMARK  148  A    between atoms: _360  and  _361
REMARK  149  A    between atoms: _364  and  _366
REMARK  150  A    between atoms: _366  and  _367
REMARK  151  A    between atoms: _366  and  _369
REMARK  152  A    between atoms: _369  and  _370
REMARK  153  A    between atoms: _370  and  _372
REMARK  154  A    between atoms: _373  and  _375
REMARK  155  A    between atoms: _375  and  _376
REMARK  156  A    between atoms: _375  and  _378
REMARK  157  A    between atoms: _378  and  _379
REMARK  158  A    between atoms: _382  and  _384
REMARK  159  A    between atoms: _384  and  _385
REMARK  160  A    between atoms: _384  and  _387
REMARK  161  A    between atoms: _390  and  _392
REMARK  162  A    between atoms: _392  and  _393
REMARK  163  A    between atoms: _392  and  _395
REMARK  164  A    between atoms: _395  and  _396
REMARK  165  A    between atoms: _396  and  _397
REMARK  166  A    between atoms: _397  and  _398
REMARK  167  A    between atoms: _398  and  _399
REMARK  168  A    between atoms: _403  and  _405
REMARK  169  A    between atoms: _405  and  _406
REMARK  170  A    between atoms: _405  and  _408
REMARK  171  A    between atoms: _408  and  _409
REMARK  172  A    between atoms: _409  and  _410
REMARK  173  A    between atoms: _412  and  _414
REMARK  174  A    between atoms: _414  and  _415
REMARK  175  A    between atoms: _414  and  _417
REMARK  176  A    between atoms: _417  and  _418
REMARK  177  A    between atoms: _421  and  _423
REMARK  178  A    between atoms: _423  and  _424
REMARK  179  A    between atoms: _426  and  _428
REMARK  180  A    between atoms: _428  and  _429
REMARK  181  A    between atoms: _431  and  _433
REMARK  182  A    between atoms: _433  and  _434
REMARK  183  A    between atoms: _433  and  _436
REMARK  184  A    between atoms: _436  and  _437
REMARK  185  A    between atoms: _440  and  _442
REMARK  186  A    between atoms: _442  and  _443
REMARK  187  A    between atoms: _445  and  _447
REMARK  188  A    between atoms: _447  and  _448
REMARK  189  A    between atoms: _450  and  _452
REMARK  190  A    between atoms: _452  and  _453
REMARK  191  A    between atoms: _452  and  _455
REMARK  192  A    between atoms: _455  and  _456
REMARK  193  A    between atoms: _459  and  _461
REMARK  194  A    between atoms: _461  and  _462
REMARK  195  A    between atoms: _461  and  _464
REMARK  196  A    between atoms: _464  and  _465
REMARK  197  A    between atoms: _468  and  _470
REMARK  198  A    between atoms: _470  and  _471
REMARK  199  A    between atoms: _470  and  _473
REMARK  200  A    between atoms: _473  and  _474
REMARK  201  A    between atoms: _478  and  _479
REMARK  202  A    between atoms: _484  and  _486
REMARK  203  A    between atoms: _486  and  _487
REMARK  204  A    between atoms: _486  and  _489
REMARK  205  A    between atoms: _492  and  _494
REMARK  206  A    between atoms: _494  and  _495
REMARK  207  A    between atoms: _494  and  _497
REMARK  208  A    between atoms: _497  and  _498
REMARK  209  A    between atoms: _503  and  _505
REMARK  210  A    between atoms: _505  and  _506
REMARK  211  A    between atoms: _505  and  _508
REMARK  212  A    between atoms: _508  and  _509
REMARK  213  A    between atoms: _512  and  _514
REMARK  214  A    between atoms: _514  and  _515
REMARK  215  A    between atoms: _514  and  _517
REMARK  216  A    between atoms: _517  and  _518
REMARK  217  A    between atoms: _521  and  _523
REMARK  218  A    between atoms: _523  and  _524
REMARK  219  A    between atoms: _526  and  _528
REMARK  220  A    between atoms: _528  and  _529
REMARK  221  A    between atoms: _528  and  _531
REMARK  222  A    between atoms: _531  and  _532
REMARK  223  A    between atoms: _532  and  _533
REMARK  224  A    between atoms: _533  and  _534
REMARK  225  A    between atoms: _543  and  _545
REMARK  226  A    between atoms: _545  and  _546
REMARK  227  A    between atoms: _545  and  _548
REMARK  228  A    between atoms: _548  and  _549
REMARK                            x       y       z     vdW  Elec       q    Type
REMARK                         _______ _______ _______ _____ _____    ______ ____
ROOT
ATOM      1  O   UNL     1     -10.500  17.495  40.924  0.00  0.00    +0.000 OA
ATOM      2  O   UNL     1     -11.685  18.446  40.123  0.00  0.00    +0.000 OA
ENDROOT
TORSDOF 0
