REMARK  Name = ../refined-set-2016/3gvu/3gvu_pocket.pdb
REMARK  244 active torsions:
REMARK  status: ('A' for Active; 'I' for Inactive)
REMARK    1  A    between atoms: _1  and  _3
REMARK    2  A    between atoms: _3  and  _4
REMARK    3  A    between atoms: _3  and  _6
REMARK    4  A    between atoms: _6  and  _7
REMARK    5  A    between atoms: _10  and  _12
REMARK    6  A    between atoms: _12  and  _13
REMARK    7  A    between atoms: _15  and  _17
REMARK    8  A    between atoms: _17  and  _18
REMARK    9  A    between atoms: _17  and  _20
REMARK   10  A    between atoms: _20  and  _21
REMARK   11  A    between atoms: _21  and  _22
REMARK   12  A    between atoms: _27  and  _29
REMARK   13  A    between atoms: _29  and  _30
REMARK   14  A    between atoms: _29  and  _32
REMARK   15  A    between atoms: _32  and  _33
REMARK   16  A    between atoms: _38  and  _39
REMARK   17  A    between atoms: _41  and  _43
REMARK   18  A    between atoms: _43  and  _44
REMARK   19  A    between atoms: _46  and  _48
REMARK   20  A    between atoms: _48  and  _49
REMARK   21  A    between atoms: _48  and  _51
REMARK   22  A    between atoms: _51  and  _52
REMARK   23  A    between atoms: _52  and  _53
REMARK   24  A    between atoms: _56  and  _58
REMARK   25  A    between atoms: _58  and  _59
REMARK   26  A    between atoms: _58  and  _61
REMARK   27  A    between atoms: _64  and  _66
REMARK   28  A    between atoms: _66  and  _67
REMARK   29  A    between atoms: _66  and  _69
REMARK   30  A    between atoms: _69  and  _70
REMARK   31  A    between atoms: _75  and  _76
REMARK   32  A    between atoms: _78  and  _80
REMARK   33  A    between atoms: _80  and  _81
REMARK   34  A    between atoms: _80  and  _83
REMARK   35  A    between atoms: _86  and  _88
REMARK   36  A    between atoms: _88  and  _89
REMARK   37  A    between atoms: _88  and  _91
REMARK   38  A    between atoms: _91  and  _92
REMARK   39  A    between atoms: _95  and  _97
REMARK   40  A    between atoms: _97  and  _98
REMARK   41  A    between atoms: _97  and  _100
REMARK   42  A    between atoms: _103  and  _105
REMARK   43  A    between atoms: _105  and  _106
REMARK   44  A    between atoms: _109  and  _111
REMARK   45  A    between atoms: _111  and  _112
REMARK   46  A    between atoms: _111  and  _114
REMARK   47  A    between atoms: _117  and  _119
REMARK   48  A    between atoms: _119  and  _120
REMARK   49  A    between atoms: _119  and  _122
REMARK   50  A    between atoms: _122  and  _123
REMARK   51  A    between atoms: _123  and  _124
REMARK   52  A    between atoms: _124  and  _125
REMARK   53  A    between atoms: _125  and  _126
REMARK   54  A    between atoms: _130  and  _132
REMARK   55  A    between atoms: _132  and  _133
REMARK   56  A    between atoms: _132  and  _135
REMARK   57  A    between atoms: _135  and  _136
REMARK   58  A    between atoms: _139  and  _141
REMARK   59  A    between atoms: _141  and  _142
REMARK   60  A    between atoms: _141  and  _144
REMARK   61  A    between atoms: _144  and  _145
REMARK   62  A    between atoms: _145  and  _146
REMARK   63  A    between atoms: _149  and  _151
REMARK   64  A    between atoms: _151  and  _152
REMARK   65  A    between atoms: _151  and  _154
REMARK   66  A    between atoms: _154  and  _155
REMARK   67  A    between atoms: _161  and  _163
REMARK   68  A    between atoms: _163  and  _164
REMARK   69  A    between atoms: _163  and  _166
REMARK   70  A    between atoms: _166  and  _167
REMARK   71  A    between atoms: _167  and  _168
REMARK   72  A    between atoms: _168  and  _169
REMARK   73  A    between atoms: _169  and  _170
REMARK   74  A    between atoms: _174  and  _176
REMARK   75  A    between atoms: _176  and  _177
REMARK   76  A    between atoms: _176  and  _179
REMARK   77  A    between atoms: _179  and  _180
REMARK   78  A    between atoms: _180  and  _181
REMARK   79  A    between atoms: _184  and  _186
REMARK   80  A    between atoms: _186  and  _187
REMARK   81  A    between atoms: _190  and  _192
REMARK   82  A    between atoms: _192  and  _193
REMARK   83  A    between atoms: _192  and  _195
REMARK   84  A    between atoms: _198  and  _200
REMARK   85  A    between atoms: _200  and  _201
REMARK   86  A    between atoms: _200  and  _203
REMARK   87  A    between atoms: _203  and  _204
REMARK   88  A    between atoms: _204  and  _205
REMARK   89  A    between atoms: _207  and  _209
REMARK   90  A    between atoms: _209  and  _210
REMARK   91  A    between atoms: _209  and  _212
REMARK   92  A    between atoms: _212  and  _213
REMARK   93  A    between atoms: _213  and  _214
REMARK   94  A    between atoms: _214  and  _215
REMARK   95  A    between atoms: _215  and  _216
REMARK   96  A    between atoms: _220  and  _222
REMARK   97  A    between atoms: _222  and  _223
REMARK   98  A    between atoms: _222  and  _225
REMARK   99  A    between atoms: _225  and  _226
REMARK  100  A    between atoms: _229  and  _231
REMARK  101  A    between atoms: _231  and  _232
REMARK  102  A    between atoms: _231  and  _234
REMARK  103  A    between atoms: _234  and  _235
REMARK  104  A    between atoms: _238  and  _240
REMARK  105  A    between atoms: _240  and  _241
REMARK  106  A    between atoms: _240  and  _243
REMARK  107  A    between atoms: _246  and  _248
REMARK  108  A    between atoms: _248  and  _249
REMARK  109  A    between atoms: _248  and  _251
REMARK  110  A    between atoms: _251  and  _252
REMARK  111  A    between atoms: _252  and  _253
REMARK  112  A    between atoms: _258  and  _260
REMARK  113  A    between atoms: _260  and  _261
REMARK  114  A    between atoms: _260  and  _263
REMARK  115  A    between atoms: _263  and  _264
REMARK  116  A    between atoms: _267  and  _269
REMARK  117  A    between atoms: _269  and  _270
REMARK  118  A    between atoms: _269  and  _272
REMARK  119  A    between atoms: _272  and  _273
REMARK  120  A    between atoms: _276  and  _278
REMARK  121  A    between atoms: _278  and  _279
REMARK  122  A    between atoms: _281  and  _283
REMARK  123  A    between atoms: _283  and  _284
REMARK  124  A    between atoms: _283  and  _286
REMARK  125  A    between atoms: _286  and  _287
REMARK  126  A    between atoms: _292  and  _293
REMARK  127  A    between atoms: _295  and  _297
REMARK  128  A    between atoms: _297  and  _298
REMARK  129  A    between atoms: _297  and  _300
REMARK  130  A    between atoms: _300  and  _301
REMARK  131  A    between atoms: _304  and  _306
REMARK  132  A    between atoms: _306  and  _307
REMARK  133  A    between atoms: _306  and  _309
REMARK  134  A    between atoms: _312  and  _314
REMARK  135  A    between atoms: _314  and  _315
REMARK  136  A    between atoms: _314  and  _317
REMARK  137  A    between atoms: _317  and  _318
REMARK  138  A    between atoms: _321  and  _323
REMARK  139  A    between atoms: _323  and  _324
REMARK  140  A    between atoms: _323  and  _326
REMARK  141  A    between atoms: _326  and  _327
REMARK  142  A    between atoms: _327  and  _328
REMARK  143  A    between atoms: _331  and  _333
REMARK  144  A    between atoms: _333  and  _334
REMARK  145  A    between atoms: _333  and  _336
REMARK  146  A    between atoms: _336  and  _337
REMARK  147  A    between atoms: _342  and  _343
REMARK  148  A    between atoms: _345  and  _347
REMARK  149  A    between atoms: _347  and  _348
REMARK  150  A    between atoms: _347  and  _350
REMARK  151  A    between atoms: _350  and  _351
REMARK  152  A    between atoms: _351  and  _352
REMARK  153  A    between atoms: _355  and  _356
REMARK  154  A    between atoms: _361  and  _363
REMARK  155  A    between atoms: _363  and  _364
REMARK  156  A    between atoms: _363  and  _366
REMARK  157  A    between atoms: _366  and  _367
REMARK  158  A    between atoms: _372  and  _373
REMARK  159  A    between atoms: _375  and  _377
REMARK  160  A    between atoms: _377  and  _378
REMARK  161  A    between atoms: _380  and  _382
REMARK  162  A    between atoms: _382  and  _383
REMARK  163  A    between atoms: _382  and  _385
REMARK  164  A    between atoms: _385  and  _386
REMARK  165  A    between atoms: _391  and  _393
REMARK  166  A    between atoms: _393  and  _394
REMARK  167  A    between atoms: _393  and  _396
REMARK  168  A    between atoms: _396  and  _397
REMARK  169  A    between atoms: _400  and  _402
REMARK  170  A    between atoms: _402  and  _403
REMARK  171  A    between atoms: _402  and  _405
REMARK  172  A    between atoms: _405  and  _406
REMARK  173  A    between atoms: _411  and  _413
REMARK  174  A    between atoms: _413  and  _414
REMARK  175  A    between atoms: _413  and  _416
REMARK  176  A    between atoms: _416  and  _417
REMARK  177  A    between atoms: _423  and  _425
REMARK  178  A    between atoms: _425  and  _426
REMARK  179  A    between atoms: _425  and  _428
REMARK  180  A    between atoms: _428  and  _429
REMARK  181  A    between atoms: _432  and  _434
REMARK  182  A    between atoms: _434  and  _435
REMARK  183  A    between atoms: _434  and  _437
REMARK  184  A    between atoms: _437  and  _438
REMARK  185  A    between atoms: _443  and  _445
REMARK  186  A    between atoms: _445  and  _446
REMARK  187  A    between atoms: _445  and  _448
REMARK  188  A    between atoms: _448  and  _449
REMARK  189  A    between atoms: _449  and  _450
REMARK  190  A    between atoms: _450  and  _451
REMARK  191  A    between atoms: _460  and  _462
REMARK  192  A    between atoms: _462  and  _463
REMARK  193  A    between atoms: _462  and  _465
REMARK  194  A    between atoms: _465  and  _466
REMARK  195  A    between atoms: _469  and  _471
REMARK  196  A    between atoms: _471  and  _472
REMARK  197  A    between atoms: _471  and  _474
REMARK  198  A    between atoms: _474  and  _475
REMARK  199  A    between atoms: _475  and  _476
REMARK  200  A    between atoms: _476  and  _477
REMARK  201  A    between atoms: _486  and  _488
REMARK  202  A    between atoms: _488  and  _489
REMARK  203  A    between atoms: _488  and  _491
REMARK  204  A    between atoms: _491  and  _492
REMARK  205  A    between atoms: _497  and  _499
REMARK  206  A    between atoms: _499  and  _500
REMARK  207  A    between atoms: _499  and  _502
REMARK  208  A    between atoms: _504  and  _506
REMARK  209  A    between atoms: _506  and  _507
REMARK  210  A    between atoms: _506  and  _509
REMARK  211  A    between atoms: _509  and  _510
REMARK  212  A    between atoms: _513  and  _515
REMARK  213  A    between atoms: _515  and  _516
REMARK  214  A    between atoms: _515  and  _518
REMARK  215  A    between atoms: _521  and  _523
REMARK  216  A    between atoms: _523  and  _524
REMARK  217  A    between atoms: _523  and  _526
REMARK  218  A    between atoms: _526  and  _527
REMARK  219  A    between atoms: _527  and  _528
REMARK  220  A    between atoms: _528  and  _529
REMARK  221  A    between atoms: _529  and  _530
REMARK  222  A    between atoms: _534  and  _536
REMARK  223  A    between atoms: _536  and  _537
REMARK  224  A    between atoms: _536  and  _539
REMARK  225  A    between atoms: _542  and  _544
REMARK  226  A    between atoms: _544  and  _545
REMARK  227  A    between atoms: _548  and  _550
REMARK  228  A    between atoms: _550  and  _551
REMARK  229  A    between atoms: _550  and  _553
REMARK  230  A    between atoms: _553  and  _554
REMARK  231  A    between atoms: _557  and  _559
REMARK  232  A    between atoms: _559  and  _560
REMARK  233  A    between atoms: _559  and  _562
REMARK  234  A    between atoms: _562  and  _563
REMARK  235  A    between atoms: _569  and  _571
REMARK  236  A    between atoms: _571  and  _572
REMARK  237  A    between atoms: _574  and  _576
REMARK  238  A    between atoms: _576  and  _577
REMARK  239  A    between atoms: _576  and  _579
REMARK  240  A    between atoms: _579  and  _580
REMARK  241  A    between atoms: _583  and  _585
REMARK  242  A    between atoms: _585  and  _586
REMARK  243  A    between atoms: _585  and  _588
REMARK  244  A    between atoms: _588  and  _589
REMARK                            x       y       z     vdW  Elec       q    Type
REMARK                         _______ _______ _______ _____ _____    ______ ____
ROOT
ATOM      1  CA  LEU A   1       2.556   9.933  18.931  0.00  0.00    +0.145 C 
ENDROOT
BRANCH   1   2
ATOM      2  C   LEU A   1       2.680  11.300  19.570  0.00  0.00    +0.238 C 
ATOM      3  N   GLY A   2       1.941  11.541  20.647  0.00  0.00    -0.297 N 
ATOM      4  H   GLY A   2       1.180  10.881  20.905  0.00  0.00    +0.150 HD
ATOM      5  O   LEU A   1       3.440  12.129  19.091  0.00  0.00    -0.274 OA
BRANCH   3   6
ATOM      6  CA  GLY A   2       2.182  12.723  21.477  0.00  0.00    +0.163 C 
BRANCH   6   7
ATOM      7  C   GLY A   2       1.507  14.007  21.011  0.00  0.00    +0.229 C 
ATOM      8  O   GLY A   2       1.840  15.077  21.486  0.00  0.00    -0.286 OA
ENDBRANCH   6   7
ENDBRANCH   3   6
ENDBRANCH   1   2
BRANCH   1   9
ATOM      9  N   LEU A   1       2.226  10.093  17.510  0.00  0.00    -0.238 NA
ATOM     10  H   LEU A   1       3.003  10.225  16.832  0.00  0.00    +0.142 HD
ENDBRANCH   1   9
BRANCH   1  11
ATOM     11  CB  LEU A   1       3.902   9.219  19.032  0.00  0.00    +0.026 C 
BRANCH  11  12
ATOM     12  CG  LEU A   1       4.209   8.136  20.058  0.00  0.00    +0.002 C 
ATOM     13  CD2 LEU A   1       2.996   7.321  20.525  0.00  0.00    +0.000 C 
ATOM     14  CD1 LEU A   1       5.282   7.234  19.429  0.00  0.00    +0.000 C 
ENDBRANCH  11  12
ENDBRANCH   1  11
TORSDOF 6
REMARK  Name = ../refined-set-2016/3gvu/3gvu_pocket.pdb
REMARK  244 active torsions:
REMARK  status: ('A' for Active; 'I' for Inactive)
REMARK    1  A    between atoms: _1  and  _3
REMARK    2  A    between atoms: _3  and  _4
REMARK    3  A    between atoms: _3  and  _6
REMARK    4  A    between atoms: _6  and  _7
REMARK    5  A    between atoms: _10  and  _12
REMARK    6  A    between atoms: _12  and  _13
REMARK    7  A    between atoms: _15  and  _17
REMARK    8  A    between atoms: _17  and  _18
REMARK    9  A    between atoms: _17  and  _20
REMARK   10  A    between atoms: _20  and  _21
REMARK   11  A    between atoms: _21  and  _22
REMARK   12  A    between atoms: _27  and  _29
REMARK   13  A    between atoms: _29  and  _30
REMARK   14  A    between atoms: _29  and  _32
REMARK   15  A    between atoms: _32  and  _33
REMARK   16  A    between atoms: _38  and  _39
REMARK   17  A    between atoms: _41  and  _43
REMARK   18  A    between atoms: _43  and  _44
REMARK   19  A    between atoms: _46  and  _48
REMARK   20  A    between atoms: _48  and  _49
REMARK   21  A    between atoms: _48  and  _51
REMARK   22  A    between atoms: _51  and  _52
REMARK   23  A    between atoms: _52  and  _53
REMARK   24  A    between atoms: _56  and  _58
REMARK   25  A    between atoms: _58  and  _59
REMARK   26  A    between atoms: _58  and  _61
REMARK   27  A    between atoms: _64  and  _66
REMARK   28  A    between atoms: _66  and  _67
REMARK   29  A    between atoms: _66  and  _69
REMARK   30  A    between atoms: _69  and  _70
REMARK   31  A    between atoms: _75  and  _76
REMARK   32  A    between atoms: _78  and  _80
REMARK   33  A    between atoms: _80  and  _81
REMARK   34  A    between atoms: _80  and  _83
REMARK   35  A    between atoms: _86  and  _88
REMARK   36  A    between atoms: _88  and  _89
REMARK   37  A    between atoms: _88  and  _91
REMARK   38  A    between atoms: _91  and  _92
REMARK   39  A    between atoms: _95  and  _97
REMARK   40  A    between atoms: _97  and  _98
REMARK   41  A    between atoms: _97  and  _100
REMARK   42  A    between atoms: _103  and  _105
REMARK   43  A    between atoms: _105  and  _106
REMARK   44  A    between atoms: _109  and  _111
REMARK   45  A    between atoms: _111  and  _112
REMARK   46  A    between atoms: _111  and  _114
REMARK   47  A    between atoms: _117  and  _119
REMARK   48  A    between atoms: _119  and  _120
REMARK   49  A    between atoms: _119  and  _122
REMARK   50  A    between atoms: _122  and  _123
REMARK   51  A    between atoms: _123  and  _124
REMARK   52  A    between atoms: _124  and  _125
REMARK   53  A    between atoms: _125  and  _126
REMARK   54  A    between atoms: _130  and  _132
REMARK   55  A    between atoms: _132  and  _133
REMARK   56  A    between atoms: _132  and  _135
REMARK   57  A    between atoms: _135  and  _136
REMARK   58  A    between atoms: _139  and  _141
REMARK   59  A    between atoms: _141  and  _142
REMARK   60  A    between atoms: _141  and  _144
REMARK   61  A    between atoms: _144  and  _145
REMARK   62  A    between atoms: _145  and  _146
REMARK   63  A    between atoms: _149  and  _151
REMARK   64  A    between atoms: _151  and  _152
REMARK   65  A    between atoms: _151  and  _154
REMARK   66  A    between atoms: _154  and  _155
REMARK   67  A    between atoms: _161  and  _163
REMARK   68  A    between atoms: _163  and  _164
REMARK   69  A    between atoms: _163  and  _166
REMARK   70  A    between atoms: _166  and  _167
REMARK   71  A    between atoms: _167  and  _168
REMARK   72  A    between atoms: _168  and  _169
REMARK   73  A    between atoms: _169  and  _170
REMARK   74  A    between atoms: _174  and  _176
REMARK   75  A    between atoms: _176  and  _177
REMARK   76  A    between atoms: _176  and  _179
REMARK   77  A    between atoms: _179  and  _180
REMARK   78  A    between atoms: _180  and  _181
REMARK   79  A    between atoms: _184  and  _186
REMARK   80  A    between atoms: _186  and  _187
REMARK   81  A    between atoms: _190  and  _192
REMARK   82  A    between atoms: _192  and  _193
REMARK   83  A    between atoms: _192  and  _195
REMARK   84  A    between atoms: _198  and  _200
REMARK   85  A    between atoms: _200  and  _201
REMARK   86  A    between atoms: _200  and  _203
REMARK   87  A    between atoms: _203  and  _204
REMARK   88  A    between atoms: _204  and  _205
REMARK   89  A    between atoms: _207  and  _209
REMARK   90  A    between atoms: _209  and  _210
REMARK   91  A    between atoms: _209  and  _212
REMARK   92  A    between atoms: _212  and  _213
REMARK   93  A    between atoms: _213  and  _214
REMARK   94  A    between atoms: _214  and  _215
REMARK   95  A    between atoms: _215  and  _216
REMARK   96  A    between atoms: _220  and  _222
REMARK   97  A    between atoms: _222  and  _223
REMARK   98  A    between atoms: _222  and  _225
REMARK   99  A    between atoms: _225  and  _226
REMARK  100  A    between atoms: _229  and  _231
REMARK  101  A    between atoms: _231  and  _232
REMARK  102  A    between atoms: _231  and  _234
REMARK  103  A    between atoms: _234  and  _235
REMARK  104  A    between atoms: _238  and  _240
REMARK  105  A    between atoms: _240  and  _241
REMARK  106  A    between atoms: _240  and  _243
REMARK  107  A    between atoms: _246  and  _248
REMARK  108  A    between atoms: _248  and  _249
REMARK  109  A    between atoms: _248  and  _251
REMARK  110  A    between atoms: _251  and  _252
REMARK  111  A    between atoms: _252  and  _253
REMARK  112  A    between atoms: _258  and  _260
REMARK  113  A    between atoms: _260  and  _261
REMARK  114  A    between atoms: _260  and  _263
REMARK  115  A    between atoms: _263  and  _264
REMARK  116  A    between atoms: _267  and  _269
REMARK  117  A    between atoms: _269  and  _270
REMARK  118  A    between atoms: _269  and  _272
REMARK  119  A    between atoms: _272  and  _273
REMARK  120  A    between atoms: _276  and  _278
REMARK  121  A    between atoms: _278  and  _279
REMARK  122  A    between atoms: _281  and  _283
REMARK  123  A    between atoms: _283  and  _284
REMARK  124  A    between atoms: _283  and  _286
REMARK  125  A    between atoms: _286  and  _287
REMARK  126  A    between atoms: _292  and  _293
REMARK  127  A    between atoms: _295  and  _297
REMARK  128  A    between atoms: _297  and  _298
REMARK  129  A    between atoms: _297  and  _300
REMARK  130  A    between atoms: _300  and  _301
REMARK  131  A    between atoms: _304  and  _306
REMARK  132  A    between atoms: _306  and  _307
REMARK  133  A    between atoms: _306  and  _309
REMARK  134  A    between atoms: _312  and  _314
REMARK  135  A    between atoms: _314  and  _315
REMARK  136  A    between atoms: _314  and  _317
REMARK  137  A    between atoms: _317  and  _318
REMARK  138  A    between atoms: _321  and  _323
REMARK  139  A    between atoms: _323  and  _324
REMARK  140  A    between atoms: _323  and  _326
REMARK  141  A    between atoms: _326  and  _327
REMARK  142  A    between atoms: _327  and  _328
REMARK  143  A    between atoms: _331  and  _333
REMARK  144  A    between atoms: _333  and  _334
REMARK  145  A    between atoms: _333  and  _336
REMARK  146  A    between atoms: _336  and  _337
REMARK  147  A    between atoms: _342  and  _343
REMARK  148  A    between atoms: _345  and  _347
REMARK  149  A    between atoms: _347  and  _348
REMARK  150  A    between atoms: _347  and  _350
REMARK  151  A    between atoms: _350  and  _351
REMARK  152  A    between atoms: _351  and  _352
REMARK  153  A    between atoms: _355  and  _356
REMARK  154  A    between atoms: _361  and  _363
REMARK  155  A    between atoms: _363  and  _364
REMARK  156  A    between atoms: _363  and  _366
REMARK  157  A    between atoms: _366  and  _367
REMARK  158  A    between atoms: _372  and  _373
REMARK  159  A    between atoms: _375  and  _377
REMARK  160  A    between atoms: _377  and  _378
REMARK  161  A    between atoms: _380  and  _382
REMARK  162  A    between atoms: _382  and  _383
REMARK  163  A    between atoms: _382  and  _385
REMARK  164  A    between atoms: _385  and  _386
REMARK  165  A    between atoms: _391  and  _393
REMARK  166  A    between atoms: _393  and  _394
REMARK  167  A    between atoms: _393  and  _396
REMARK  168  A    between atoms: _396  and  _397
REMARK  169  A    between atoms: _400  and  _402
REMARK  170  A    between atoms: _402  and  _403
REMARK  171  A    between atoms: _402  and  _405
REMARK  172  A    between atoms: _405  and  _406
REMARK  173  A    between atoms: _411  and  _413
REMARK  174  A    between atoms: _413  and  _414
REMARK  175  A    between atoms: _413  and  _416
REMARK  176  A    between atoms: _416  and  _417
REMARK  177  A    between atoms: _423  and  _425
REMARK  178  A    between atoms: _425  and  _426
REMARK  179  A    between atoms: _425  and  _428
REMARK  180  A    between atoms: _428  and  _429
REMARK  181  A    between atoms: _432  and  _434
REMARK  182  A    between atoms: _434  and  _435
REMARK  183  A    between atoms: _434  and  _437
REMARK  184  A    between atoms: _437  and  _438
REMARK  185  A    between atoms: _443  and  _445
REMARK  186  A    between atoms: _445  and  _446
REMARK  187  A    between atoms: _445  and  _448
REMARK  188  A    between atoms: _448  and  _449
REMARK  189  A    between atoms: _449  and  _450
REMARK  190  A    between atoms: _450  and  _451
REMARK  191  A    between atoms: _460  and  _462
REMARK  192  A    between atoms: _462  and  _463
REMARK  193  A    between atoms: _462  and  _465
REMARK  194  A    between atoms: _465  and  _466
REMARK  195  A    between atoms: _469  and  _471
REMARK  196  A    between atoms: _471  and  _472
REMARK  197  A    between atoms: _471  and  _474
REMARK  198  A    between atoms: _474  and  _475
REMARK  199  A    between atoms: _475  and  _476
REMARK  200  A    between atoms: _476  and  _477
REMARK  201  A    between atoms: _486  and  _488
REMARK  202  A    between atoms: _488  and  _489
REMARK  203  A    between atoms: _488  and  _491
REMARK  204  A    between atoms: _491  and  _492
REMARK  205  A    between atoms: _497  and  _499
REMARK  206  A    between atoms: _499  and  _500
REMARK  207  A    between atoms: _499  and  _502
REMARK  208  A    between atoms: _504  and  _506
REMARK  209  A    between atoms: _506  and  _507
REMARK  210  A    between atoms: _506  and  _509
REMARK  211  A    between atoms: _509  and  _510
REMARK  212  A    between atoms: _513  and  _515
REMARK  213  A    between atoms: _515  and  _516
REMARK  214  A    between atoms: _515  and  _518
REMARK  215  A    between atoms: _521  and  _523
REMARK  216  A    between atoms: _523  and  _524
REMARK  217  A    between atoms: _523  and  _526
REMARK  218  A    between atoms: _526  and  _527
REMARK  219  A    between atoms: _527  and  _528
REMARK  220  A    between atoms: _528  and  _529
REMARK  221  A    between atoms: _529  and  _530
REMARK  222  A    between atoms: _534  and  _536
REMARK  223  A    between atoms: _536  and  _537
REMARK  224  A    between atoms: _536  and  _539
REMARK  225  A    between atoms: _542  and  _544
REMARK  226  A    between atoms: _544  and  _545
REMARK  227  A    between atoms: _548  and  _550
REMARK  228  A    between atoms: _550  and  _551
REMARK  229  A    between atoms: _550  and  _553
REMARK  230  A    between atoms: _553  and  _554
REMARK  231  A    between atoms: _557  and  _559
REMARK  232  A    between atoms: _559  and  _560
REMARK  233  A    between atoms: _559  and  _562
REMARK  234  A    between atoms: _562  and  _563
REMARK  235  A    between atoms: _569  and  _571
REMARK  236  A    between atoms: _571  and  _572
REMARK  237  A    between atoms: _574  and  _576
REMARK  238  A    between atoms: _576  and  _577
REMARK  239  A    between atoms: _576  and  _579
REMARK  240  A    between atoms: _579  and  _580
REMARK  241  A    between atoms: _583  and  _585
REMARK  242  A    between atoms: _585  and  _586
REMARK  243  A    between atoms: _585  and  _588
REMARK  244  A    between atoms: _588  and  _589
REMARK                            x       y       z     vdW  Elec       q    Type
REMARK                         _______ _______ _______ _____ _____    ______ ____
ROOT
ATOM      1  CA  GLU A   4       6.644  13.913  13.119  0.00  0.00    +0.149 C 
ENDROOT
BRANCH   1   2
ATOM      2  C   GLU A   4       7.064  12.528  13.551  0.00  0.00    +0.241 C 
ATOM      3  N   VAL A   5       6.498  12.090  14.667  0.00  0.00    -0.297 N 
ATOM      4  H   VAL A   5       5.811  12.698  15.156  0.00  0.00    +0.150 HD
ATOM      5  O   GLU A   4       7.896  11.884  12.917  0.00  0.00    -0.273 OA
BRANCH   3   6
ATOM      6  CA  VAL A   5       6.804  10.806  15.218  0.00  0.00    +0.149 C 
BRANCH   6   7
ATOM      7  C   VAL A   5       5.480  10.053  15.349  0.00  0.00    +0.241 C 
ATOM      8  O   VAL A   5       4.497  10.600  15.846  0.00  0.00    -0.273 OA
ATOM      9  N   TYR A   6       5.470   8.809  14.865  0.00  0.00    -0.297 N 
ATOM     10  H   TYR A   6       6.364   8.411  14.514  0.00  0.00    +0.150 HD
BRANCH   9  11
ATOM     11  CA  TYR A   6       4.269   7.975  14.801  0.00  0.00    +0.153 C 
BRANCH  11  12
ATOM     12  C   TYR A   6       4.469   6.631  15.505  0.00  0.00    +0.241 C 
ATOM     13  N   VAL A   7       3.397   6.084  16.058  0.00  0.00    -0.298 N 
ATOM     14  H   VAL A   7       2.528   6.644  16.170  0.00  0.00    +0.150 HD
ATOM     15  O   TYR A   6       5.565   6.110  15.560  0.00  0.00    -0.273 OA
BRANCH  13  16
ATOM     16  CA  VAL A   7       3.432   4.715  16.504  0.00  0.00    +0.137 C 
BRANCH  16  17
ATOM     17  CB  VAL A   7       2.441   4.419  17.691  0.00  0.00    +0.026 C 
ATOM     18  CG2 VAL A   7       2.510   2.932  18.100  0.00  0.00    +0.002 C 
ATOM     19  CG1 VAL A   7       1.030   4.799  17.349  0.00  0.00    +0.002 C 
ENDBRANCH  16  17
BRANCH  16  20
ATOM     20  C   VAL A   7       3.164   3.859  15.275  0.00  0.00    +0.227 C 
ATOM     21  O   VAL A   7       2.324   4.192  14.433  0.00  0.00    -0.286 OA
ENDBRANCH  16  20
ENDBRANCH  13  16
ENDBRANCH  11  12
BRANCH  11  22
ATOM     22  CB  TYR A   6       3.881   7.731  13.347  0.00  0.00    +0.055 C 
BRANCH  22  23
ATOM     23  CG  TYR A   6       3.525   8.993  12.604  0.00  0.00    -0.020 A 
ATOM     24  CD2 TYR A   6       2.208   9.339  12.386  0.00  0.00    -0.001 A 
ATOM     25  CE2 TYR A   6       1.879  10.511  11.727  0.00  0.00    +0.036 A 
ATOM     26  CZ  TYR A   6       2.888  11.337  11.254  0.00  0.00    +0.134 A 
ATOM     27  CE1 TYR A   6       4.194  10.992  11.427  0.00  0.00    +0.036 A 
ATOM     28  CD1 TYR A   6       4.511   9.833  12.113  0.00  0.00    -0.001 A 
BRANCH  26  29
ATOM     29  OH  TYR A   6       2.579  12.497  10.587  0.00  0.00    -0.506 OA
ATOM     30  HH  TYR A   6       2.974  13.267  11.067  0.00  0.00    +0.292 HD
ENDBRANCH  26  29
ENDBRANCH  22  23
ENDBRANCH  11  22
ENDBRANCH   9  11
ENDBRANCH   6   7
BRANCH   6  31
ATOM     31  CB  VAL A   5       7.530  10.893  16.551  0.00  0.00    +0.027 C 
ATOM     32  CG2 VAL A   5       7.747   9.516  17.072  0.00  0.00    +0.002 C 
ATOM     33  CG1 VAL A   5       8.883  11.622  16.399  0.00  0.00    +0.002 C 
ENDBRANCH   6  31
ENDBRANCH   3   6
ENDBRANCH   1   2
BRANCH   1  36
ATOM     34  C   GLY A   3       6.573  15.209  15.189  0.00  0.00    +0.243 C 
ATOM     35  O   GLY A   3       5.549  14.634  15.580  0.00  0.00    -0.273 OA
ATOM     36  N   GLU A   4       7.182  14.905  14.045  0.00  0.00    -0.297 N 
ATOM     37  H   GLU A   4       8.070  15.390  13.803  0.00  0.00    +0.150 HD
BRANCH  34  38
ATOM     38  CA  GLY A   3       7.222  16.311  16.014  0.00  0.00    +0.176 C 
BRANCH  38  41
ATOM     39  C   TYR A   2       7.932  15.207  18.068  0.00  0.00    +0.241 C 
ATOM     40  O   TYR A   2       8.854  14.642  17.508  0.00  0.00    -0.273 OA
ATOM     41  N   GLY A   3       7.129  16.060  17.446  0.00  0.00    -0.295 N 
ATOM     42  H   GLY A   3       6.409  16.567  17.999  0.00  0.00    +0.150 HD
BRANCH  39  43
ATOM     43  CA  TYR A   2       7.642  14.904  19.543  0.00  0.00    +0.153 C 
BRANCH  43  46
ATOM     44  C   GLN A   1       6.360  16.559  20.796  0.00  0.00    +0.238 C 
ATOM     45  O   GLN A   1       7.378  17.023  21.313  0.00  0.00    -0.274 OA
ATOM     46  N   TYR A   2       6.387  15.513  19.975  0.00  0.00    -0.297 N 
ATOM     47  H   TYR A   2       5.489  15.118  19.631  0.00  0.00    +0.150 HD
BRANCH  44  48
ATOM     48  CA  GLN A   1       4.990  17.176  21.081  0.00  0.00    +0.145 C 
BRANCH  48  49
ATOM     49  N   GLN A   1       3.946  16.783  20.139  0.00  0.00    -0.238 NA
ATOM     50  H   GLN A   1       3.168  16.168  20.451  0.00  0.00    +0.142 HD
ENDBRANCH  48  49
BRANCH  48  51
ATOM     51  CB  GLN A   1       4.546  16.925  22.521  0.00  0.00    +0.036 C 
BRANCH  51  52
ATOM     52  CG  GLN A   1       4.756  15.540  23.089  0.00  0.00    +0.087 C 
BRANCH  52  53
ATOM     53  CD  GLN A   1       4.263  15.463  24.541  0.00  0.00    +0.219 C 
ATOM     54  NE2 GLN A   1       5.139  15.050  25.448  0.00  0.00    -0.329 N 
ATOM     55 HE21 GLN A   1       4.867  15.005  26.451  0.00  0.00    +0.145 HD
ATOM     56 HE22 GLN A   1       6.097  14.771  25.156  0.00  0.00    +0.145 HD
ATOM     57  OE1 GLN A   1       3.121  15.803  24.833  0.00  0.00    -0.275 OA
ENDBRANCH  52  53
ENDBRANCH  51  52
ENDBRANCH  48  51
ENDBRANCH  44  48
ENDBRANCH  43  46
BRANCH  43  58
ATOM     58  CB  TYR A   2       7.591  13.381  19.728  0.00  0.00    +0.055 C 
BRANCH  58  59
ATOM     59  CG  TYR A   2       7.265  12.898  21.129  0.00  0.00    -0.020 A 
ATOM     60  CD2 TYR A   2       8.200  12.997  22.154  0.00  0.00    -0.001 A 
ATOM     61  CE2 TYR A   2       7.929  12.543  23.425  0.00  0.00    +0.036 A 
ATOM     62  CZ  TYR A   2       6.713  11.947  23.704  0.00  0.00    +0.134 A 
ATOM     63  CE1 TYR A   2       5.761  11.809  22.713  0.00  0.00    +0.036 A 
ATOM     64  CD1 TYR A   2       6.043  12.287  21.416  0.00  0.00    -0.001 A 
BRANCH  62  65
ATOM     65  OH  TYR A   2       6.477  11.496  24.977  0.00  0.00    -0.506 OA
ATOM     66  HH  TYR A   2       6.307  10.521  24.954  0.00  0.00    +0.292 HD
ENDBRANCH  62  65
ENDBRANCH  58  59
ENDBRANCH  43  58
ENDBRANCH  39  43
ENDBRANCH  38  41
ENDBRANCH  34  38
ENDBRANCH   1  36
BRANCH   1  67
ATOM     67  CB  GLU A   4       7.090  14.223  11.682  0.00  0.00    +0.041 C 
BRANCH  67  68
ATOM     68  CG  GLU A   4       6.455  15.480  11.137  0.00  0.00    +0.116 C 
BRANCH  68  69
ATOM     69  CD  GLU A   4       4.943  15.372  11.024  0.00  0.00    +0.365 C 
ATOM     70  OE2 GLU A   4       4.244  16.266  11.548  0.00  0.00    -0.246 OA
ATOM     71  OE1 GLU A   4       4.454  14.398  10.403  0.00  0.00    -0.246 OA
ENDBRANCH  68  69
ENDBRANCH  67  68
ENDBRANCH   1  67
TORSDOF 28
REMARK  Name = ../refined-set-2016/3gvu/3gvu_pocket.pdb
REMARK  244 active torsions:
REMARK  status: ('A' for Active; 'I' for Inactive)
REMARK    1  A    between atoms: _1  and  _3
REMARK    2  A    between atoms: _3  and  _4
REMARK    3  A    between atoms: _3  and  _6
REMARK    4  A    between atoms: _6  and  _7
REMARK    5  A    between atoms: _10  and  _12
REMARK    6  A    between atoms: _12  and  _13
REMARK    7  A    between atoms: _15  and  _17
REMARK    8  A    between atoms: _17  and  _18
REMARK    9  A    between atoms: _17  and  _20
REMARK   10  A    between atoms: _20  and  _21
REMARK   11  A    between atoms: _21  and  _22
REMARK   12  A    between atoms: _27  and  _29
REMARK   13  A    between atoms: _29  and  _30
REMARK   14  A    between atoms: _29  and  _32
REMARK   15  A    between atoms: _32  and  _33
REMARK   16  A    between atoms: _38  and  _39
REMARK   17  A    between atoms: _41  and  _43
REMARK   18  A    between atoms: _43  and  _44
REMARK   19  A    between atoms: _46  and  _48
REMARK   20  A    between atoms: _48  and  _49
REMARK   21  A    between atoms: _48  and  _51
REMARK   22  A    between atoms: _51  and  _52
REMARK   23  A    between atoms: _52  and  _53
REMARK   24  A    between atoms: _56  and  _58
REMARK   25  A    between atoms: _58  and  _59
REMARK   26  A    between atoms: _58  and  _61
REMARK   27  A    between atoms: _64  and  _66
REMARK   28  A    between atoms: _66  and  _67
REMARK   29  A    between atoms: _66  and  _69
REMARK   30  A    between atoms: _69  and  _70
REMARK   31  A    between atoms: _75  and  _76
REMARK   32  A    between atoms: _78  and  _80
REMARK   33  A    between atoms: _80  and  _81
REMARK   34  A    between atoms: _80  and  _83
REMARK   35  A    between atoms: _86  and  _88
REMARK   36  A    between atoms: _88  and  _89
REMARK   37  A    between atoms: _88  and  _91
REMARK   38  A    between atoms: _91  and  _92
REMARK   39  A    between atoms: _95  and  _97
REMARK   40  A    between atoms: _97  and  _98
REMARK   41  A    between atoms: _97  and  _100
REMARK   42  A    between atoms: _103  and  _105
REMARK   43  A    between atoms: _105  and  _106
REMARK   44  A    between atoms: _109  and  _111
REMARK   45  A    between atoms: _111  and  _112
REMARK   46  A    between atoms: _111  and  _114
REMARK   47  A    between atoms: _117  and  _119
REMARK   48  A    between atoms: _119  and  _120
REMARK   49  A    between atoms: _119  and  _122
REMARK   50  A    between atoms: _122  and  _123
REMARK   51  A    between atoms: _123  and  _124
REMARK   52  A    between atoms: _124  and  _125
REMARK   53  A    between atoms: _125  and  _126
REMARK   54  A    between atoms: _130  and  _132
REMARK   55  A    between atoms: _132  and  _133
REMARK   56  A    between atoms: _132  and  _135
REMARK   57  A    between atoms: _135  and  _136
REMARK   58  A    between atoms: _139  and  _141
REMARK   59  A    between atoms: _141  and  _142
REMARK   60  A    between atoms: _141  and  _144
REMARK   61  A    between atoms: _144  and  _145
REMARK   62  A    between atoms: _145  and  _146
REMARK   63  A    between atoms: _149  and  _151
REMARK   64  A    between atoms: _151  and  _152
REMARK   65  A    between atoms: _151  and  _154
REMARK   66  A    between atoms: _154  and  _155
REMARK   67  A    between atoms: _161  and  _163
REMARK   68  A    between atoms: _163  and  _164
REMARK   69  A    between atoms: _163  and  _166
REMARK   70  A    between atoms: _166  and  _167
REMARK   71  A    between atoms: _167  and  _168
REMARK   72  A    between atoms: _168  and  _169
REMARK   73  A    between atoms: _169  and  _170
REMARK   74  A    between atoms: _174  and  _176
REMARK   75  A    between atoms: _176  and  _177
REMARK   76  A    between atoms: _176  and  _179
REMARK   77  A    between atoms: _179  and  _180
REMARK   78  A    between atoms: _180  and  _181
REMARK   79  A    between atoms: _184  and  _186
REMARK   80  A    between atoms: _186  and  _187
REMARK   81  A    between atoms: _190  and  _192
REMARK   82  A    between atoms: _192  and  _193
REMARK   83  A    between atoms: _192  and  _195
REMARK   84  A    between atoms: _198  and  _200
REMARK   85  A    between atoms: _200  and  _201
REMARK   86  A    between atoms: _200  and  _203
REMARK   87  A    between atoms: _203  and  _204
REMARK   88  A    between atoms: _204  and  _205
REMARK   89  A    between atoms: _207  and  _209
REMARK   90  A    between atoms: _209  and  _210
REMARK   91  A    between atoms: _209  and  _212
REMARK   92  A    between atoms: _212  and  _213
REMARK   93  A    between atoms: _213  and  _214
REMARK   94  A    between atoms: _214  and  _215
REMARK   95  A    between atoms: _215  and  _216
REMARK   96  A    between atoms: _220  and  _222
REMARK   97  A    between atoms: _222  and  _223
REMARK   98  A    between atoms: _222  and  _225
REMARK   99  A    between atoms: _225  and  _226
REMARK  100  A    between atoms: _229  and  _231
REMARK  101  A    between atoms: _231  and  _232
REMARK  102  A    between atoms: _231  and  _234
REMARK  103  A    between atoms: _234  and  _235
REMARK  104  A    between atoms: _238  and  _240
REMARK  105  A    between atoms: _240  and  _241
REMARK  106  A    between atoms: _240  and  _243
REMARK  107  A    between atoms: _246  and  _248
REMARK  108  A    between atoms: _248  and  _249
REMARK  109  A    between atoms: _248  and  _251
REMARK  110  A    between atoms: _251  and  _252
REMARK  111  A    between atoms: _252  and  _253
REMARK  112  A    between atoms: _258  and  _260
REMARK  113  A    between atoms: _260  and  _261
REMARK  114  A    between atoms: _260  and  _263
REMARK  115  A    between atoms: _263  and  _264
REMARK  116  A    between atoms: _267  and  _269
REMARK  117  A    between atoms: _269  and  _270
REMARK  118  A    between atoms: _269  and  _272
REMARK  119  A    between atoms: _272  and  _273
REMARK  120  A    between atoms: _276  and  _278
REMARK  121  A    between atoms: _278  and  _279
REMARK  122  A    between atoms: _281  and  _283
REMARK  123  A    between atoms: _283  and  _284
REMARK  124  A    between atoms: _283  and  _286
REMARK  125  A    between atoms: _286  and  _287
REMARK  126  A    between atoms: _292  and  _293
REMARK  127  A    between atoms: _295  and  _297
REMARK  128  A    between atoms: _297  and  _298
REMARK  129  A    between atoms: _297  and  _300
REMARK  130  A    between atoms: _300  and  _301
REMARK  131  A    between atoms: _304  and  _306
REMARK  132  A    between atoms: _306  and  _307
REMARK  133  A    between atoms: _306  and  _309
REMARK  134  A    between atoms: _312  and  _314
REMARK  135  A    between atoms: _314  and  _315
REMARK  136  A    between atoms: _314  and  _317
REMARK  137  A    between atoms: _317  and  _318
REMARK  138  A    between atoms: _321  and  _323
REMARK  139  A    between atoms: _323  and  _324
REMARK  140  A    between atoms: _323  and  _326
REMARK  141  A    between atoms: _326  and  _327
REMARK  142  A    between atoms: _327  and  _328
REMARK  143  A    between atoms: _331  and  _333
REMARK  144  A    between atoms: _333  and  _334
REMARK  145  A    between atoms: _333  and  _336
REMARK  146  A    between atoms: _336  and  _337
REMARK  147  A    between atoms: _342  and  _343
REMARK  148  A    between atoms: _345  and  _347
REMARK  149  A    between atoms: _347  and  _348
REMARK  150  A    between atoms: _347  and  _350
REMARK  151  A    between atoms: _350  and  _351
REMARK  152  A    between atoms: _351  and  _352
REMARK  153  A    between atoms: _355  and  _356
REMARK  154  A    between atoms: _361  and  _363
REMARK  155  A    between atoms: _363  and  _364
REMARK  156  A    between atoms: _363  and  _366
REMARK  157  A    between atoms: _366  and  _367
REMARK  158  A    between atoms: _372  and  _373
REMARK  159  A    between atoms: _375  and  _377
REMARK  160  A    between atoms: _377  and  _378
REMARK  161  A    between atoms: _380  and  _382
REMARK  162  A    between atoms: _382  and  _383
REMARK  163  A    between atoms: _382  and  _385
REMARK  164  A    between atoms: _385  and  _386
REMARK  165  A    between atoms: _391  and  _393
REMARK  166  A    between atoms: _393  and  _394
REMARK  167  A    between atoms: _393  and  _396
REMARK  168  A    between atoms: _396  and  _397
REMARK  169  A    between atoms: _400  and  _402
REMARK  170  A    between atoms: _402  and  _403
REMARK  171  A    between atoms: _402  and  _405
REMARK  172  A    between atoms: _405  and  _406
REMARK  173  A    between atoms: _411  and  _413
REMARK  174  A    between atoms: _413  and  _414
REMARK  175  A    between atoms: _413  and  _416
REMARK  176  A    between atoms: _416  and  _417
REMARK  177  A    between atoms: _423  and  _425
REMARK  178  A    between atoms: _425  and  _426
REMARK  179  A    between atoms: _425  and  _428
REMARK  180  A    between atoms: _428  and  _429
REMARK  181  A    between atoms: _432  and  _434
REMARK  182  A    between atoms: _434  and  _435
REMARK  183  A    between atoms: _434  and  _437
REMARK  184  A    between atoms: _437  and  _438
REMARK  185  A    between atoms: _443  and  _445
REMARK  186  A    between atoms: _445  and  _446
REMARK  187  A    between atoms: _445  and  _448
REMARK  188  A    between atoms: _448  and  _449
REMARK  189  A    between atoms: _449  and  _450
REMARK  190  A    between atoms: _450  and  _451
REMARK  191  A    between atoms: _460  and  _462
REMARK  192  A    between atoms: _462  and  _463
REMARK  193  A    between atoms: _462  and  _465
REMARK  194  A    between atoms: _465  and  _466
REMARK  195  A    between atoms: _469  and  _471
REMARK  196  A    between atoms: _471  and  _472
REMARK  197  A    between atoms: _471  and  _474
REMARK  198  A    between atoms: _474  and  _475
REMARK  199  A    between atoms: _475  and  _476
REMARK  200  A    between atoms: _476  and  _477
REMARK  201  A    between atoms: _486  and  _488
REMARK  202  A    between atoms: _488  and  _489
REMARK  203  A    between atoms: _488  and  _491
REMARK  204  A    between atoms: _491  and  _492
REMARK  205  A    between atoms: _497  and  _499
REMARK  206  A    between atoms: _499  and  _500
REMARK  207  A    between atoms: _499  and  _502
REMARK  208  A    between atoms: _504  and  _506
REMARK  209  A    between atoms: _506  and  _507
REMARK  210  A    between atoms: _506  and  _509
REMARK  211  A    between atoms: _509  and  _510
REMARK  212  A    between atoms: _513  and  _515
REMARK  213  A    between atoms: _515  and  _516
REMARK  214  A    between atoms: _515  and  _518
REMARK  215  A    between atoms: _521  and  _523
REMARK  216  A    between atoms: _523  and  _524
REMARK  217  A    between atoms: _523  and  _526
REMARK  218  A    between atoms: _526  and  _527
REMARK  219  A    between atoms: _527  and  _528
REMARK  220  A    between atoms: _528  and  _529
REMARK  221  A    between atoms: _529  and  _530
REMARK  222  A    between atoms: _534  and  _536
REMARK  223  A    between atoms: _536  and  _537
REMARK  224  A    between atoms: _536  and  _539
REMARK  225  A    between atoms: _542  and  _544
REMARK  226  A    between atoms: _544  and  _545
REMARK  227  A    between atoms: _548  and  _550
REMARK  228  A    between atoms: _550  and  _551
REMARK  229  A    between atoms: _550  and  _553
REMARK  230  A    between atoms: _553  and  _554
REMARK  231  A    between atoms: _557  and  _559
REMARK  232  A    between atoms: _559  and  _560
REMARK  233  A    between atoms: _559  and  _562
REMARK  234  A    between atoms: _562  and  _563
REMARK  235  A    between atoms: _569  and  _571
REMARK  236  A    between atoms: _571  and  _572
REMARK  237  A    between atoms: _574  and  _576
REMARK  238  A    between atoms: _576  and  _577
REMARK  239  A    between atoms: _576  and  _579
REMARK  240  A    between atoms: _579  and  _580
REMARK  241  A    between atoms: _583  and  _585
REMARK  242  A    between atoms: _585  and  _586
REMARK  243  A    between atoms: _585  and  _588
REMARK  244  A    between atoms: _588  and  _589
REMARK                            x       y       z     vdW  Elec       q    Type
REMARK                         _______ _______ _______ _____ _____    ______ ____
ROOT
ATOM      1  CA  VAL A   4       8.858   6.082  13.658  0.00  0.00    +0.149 C 
ENDROOT
BRANCH   1   4
ATOM      2  C   ALA A   3       8.933   4.919  15.813  0.00  0.00    +0.241 C 
ATOM      3  O   ALA A   3      10.006   4.387  15.561  0.00  0.00    -0.273 OA
ATOM      4  N   VAL A   4       8.323   5.749  14.972  0.00  0.00    -0.297 N 
ATOM      5  H   VAL A   4       7.423   6.180  15.265  0.00  0.00    +0.150 HD
BRANCH   2   6
ATOM      6  CA  ALA A   3       8.201   4.587  17.129  0.00  0.00    +0.149 C 
ATOM      7  CB  ALA A   3       8.790   5.381  18.337  0.00  0.00    +0.031 C 
BRANCH   6   9
ATOM      8  C   VAL A   2       7.344   2.306  17.162  0.00  0.00    +0.241 C 
ATOM      9  N   ALA A   3       8.347   3.163  17.340  0.00  0.00    -0.297 N 
ATOM     10  H   ALA A   3       9.271   2.795  17.642  0.00  0.00    +0.150 HD
ATOM     11  O   VAL A   2       6.183   2.652  16.969  0.00  0.00    -0.273 OA
BRANCH   8  12
ATOM     12  CA  VAL A   2       7.703   0.836  17.241  0.00  0.00    +0.148 C 
BRANCH  12  15
ATOM     13  C   THR A   1       6.398  -0.984  18.266  0.00  0.00    +0.241 C 
ATOM     14  O   THR A   1       7.324  -1.326  18.996  0.00  0.00    -0.274 OA
ATOM     15  N   VAL A   2       6.481   0.038  17.419  0.00  0.00    -0.297 N 
ATOM     16  H   VAL A   2       5.642   0.284  16.856  0.00  0.00    +0.150 HD
BRANCH  13  17
ATOM     17  CA  THR A   1       5.085  -1.760  18.271  0.00  0.00    +0.172 C 
BRANCH  17  18
ATOM     18  N   THR A   1       5.391  -3.186  18.258  0.00  0.00    -0.236 NA
ATOM     19  H   THR A   1       5.174  -3.755  19.101  0.00  0.00    +0.142 HD
ENDBRANCH  17  18
BRANCH  17  20
ATOM     20  CB  THR A   1       4.246  -1.400  19.511  0.00  0.00    +0.135 C 
ATOM     21  CG2 THR A   1       3.861   0.073  19.503  0.00  0.00    +0.034 C 
BRANCH  20  22
ATOM     22  OG1 THR A   1       3.068  -2.233  19.545  0.00  0.00    -0.383 OA
ATOM     23  HG1 THR A   1       3.339  -3.184  19.591  0.00  0.00    +0.210 HD
ENDBRANCH  20  22
ENDBRANCH  17  20
ENDBRANCH  13  17
ENDBRANCH  12  15
BRANCH  12  24
ATOM     24  CB  VAL A   2       8.475   0.457  15.944  0.00  0.00    +0.027 C 
ATOM     25  CG2 VAL A   2       8.944  -0.988  15.998  0.00  0.00    +0.002 C 
ATOM     26  CG1 VAL A   2       7.628   0.728  14.692  0.00  0.00    +0.002 C 
ENDBRANCH  12  24
ENDBRANCH   8  12
ENDBRANCH   6   9
ENDBRANCH   2   6
ENDBRANCH   1   4
BRANCH   1  27
ATOM     27  C   VAL A   4       8.881   7.587  13.469  0.00  0.00    +0.241 C 
ATOM     28  O   VAL A   4       7.845   8.237  13.505  0.00  0.00    -0.273 OA
ATOM     29  N   LYS A   5      10.071   8.129  13.293  0.00  0.00    -0.297 N 
ATOM     30  H   LYS A   5      10.914   7.529  13.397  0.00  0.00    +0.150 HD
BRANCH  29  31
ATOM     31  CA  LYS A   5      10.247   9.522  12.962  0.00  0.00    +0.149 C 
BRANCH  31  32
ATOM     32  C   LYS A   5      10.330   9.639  11.458  0.00  0.00    +0.241 C 
ATOM     33  N   THR A   6       9.571  10.573  10.921  0.00  0.00    -0.296 N 
ATOM     34  H   THR A   6       9.016  11.198  11.539  0.00  0.00    +0.150 HD
ATOM     35  O   LYS A   5      11.078   8.911  10.807  0.00  0.00    -0.273 OA
BRANCH  33  36
ATOM     36  CA  THR A   6       9.497  10.743   9.496  0.00  0.00    +0.164 C 
BRANCH  36  37
ATOM     37  CB  THR A   6       8.126  10.348   8.947  0.00  0.00    +0.136 C 
ATOM     38  CG2 THR A   6       7.093  11.324   9.369  0.00  0.00    +0.034 C 
BRANCH  37  39
ATOM     39  OG1 THR A   6       8.210  10.354   7.519  0.00  0.00    -0.382 OA
ATOM     40  HG1 THR A   6       8.898   9.705   7.227  0.00  0.00    +0.210 HD
ENDBRANCH  37  39
ENDBRANCH  36  37
BRANCH  36  41
ATOM     41  C   THR A   6       9.783  12.173   9.084  0.00  0.00    +0.229 C 
ATOM     42  O   THR A   6       9.728  13.112   9.869  0.00  0.00    -0.286 OA
ENDBRANCH  36  41
ENDBRANCH  33  36
ENDBRANCH  31  32
BRANCH  31  43
ATOM     43  CB  LYS A   5      11.532  10.075  13.544  0.00  0.00    +0.029 C 
BRANCH  43  44
ATOM     44  CG  LYS A   5      11.640  11.615  13.436  0.00  0.00    +0.000 C 
BRANCH  44  45
ATOM     45  CD  LYS A   5      12.977  12.081  14.001  0.00  0.00    -0.024 C 
BRANCH  45  46
ATOM     46  CE  LYS A   5      13.157  13.599  13.973  0.00  0.00    -0.086 C 
BRANCH  46  47
ATOM     47  NZ  LYS A   5      14.493  13.924  14.543  0.00  0.00    +0.380 N 
ATOM     48  HZ1 LYS A   5      14.545  13.577  15.522  0.00  0.00    -0.089 HD
ATOM     49  HZ2 LYS A   5      14.632  14.955  14.531  0.00  0.00    -0.089 HD
ATOM     50  HZ3 LYS A   5      15.233  13.467  13.972  0.00  0.00    -0.089 HD
ENDBRANCH  46  47
ENDBRANCH  45  46
ENDBRANCH  44  45
ENDBRANCH  43  44
ENDBRANCH  31  43
ENDBRANCH  29  31
ENDBRANCH   1  27
BRANCH   1  51
ATOM     51  CB  VAL A   4       8.020   5.479  12.503  0.00  0.00    +0.027 C 
ATOM     52  CG2 VAL A   4       7.699   4.002  12.736  0.00  0.00    +0.002 C 
ATOM     53  CG1 VAL A   4       8.737   5.682  11.176  0.00  0.00    +0.002 C 
ENDBRANCH   1  51
TORSDOF 23
REMARK  Name = ../refined-set-2016/3gvu/3gvu_pocket.pdb
REMARK  244 active torsions:
REMARK  status: ('A' for Active; 'I' for Inactive)
REMARK    1  A    between atoms: _1  and  _3
REMARK    2  A    between atoms: _3  and  _4
REMARK    3  A    between atoms: _3  and  _6
REMARK    4  A    between atoms: _6  and  _7
REMARK    5  A    between atoms: _10  and  _12
REMARK    6  A    between atoms: _12  and  _13
REMARK    7  A    between atoms: _15  and  _17
REMARK    8  A    between atoms: _17  and  _18
REMARK    9  A    between atoms: _17  and  _20
REMARK   10  A    between atoms: _20  and  _21
REMARK   11  A    between atoms: _21  and  _22
REMARK   12  A    between atoms: _27  and  _29
REMARK   13  A    between atoms: _29  and  _30
REMARK   14  A    between atoms: _29  and  _32
REMARK   15  A    between atoms: _32  and  _33
REMARK   16  A    between atoms: _38  and  _39
REMARK   17  A    between atoms: _41  and  _43
REMARK   18  A    between atoms: _43  and  _44
REMARK   19  A    between atoms: _46  and  _48
REMARK   20  A    between atoms: _48  and  _49
REMARK   21  A    between atoms: _48  and  _51
REMARK   22  A    between atoms: _51  and  _52
REMARK   23  A    between atoms: _52  and  _53
REMARK   24  A    between atoms: _56  and  _58
REMARK   25  A    between atoms: _58  and  _59
REMARK   26  A    between atoms: _58  and  _61
REMARK   27  A    between atoms: _64  and  _66
REMARK   28  A    between atoms: _66  and  _67
REMARK   29  A    between atoms: _66  and  _69
REMARK   30  A    between atoms: _69  and  _70
REMARK   31  A    between atoms: _75  and  _76
REMARK   32  A    between atoms: _78  and  _80
REMARK   33  A    between atoms: _80  and  _81
REMARK   34  A    between atoms: _80  and  _83
REMARK   35  A    between atoms: _86  and  _88
REMARK   36  A    between atoms: _88  and  _89
REMARK   37  A    between atoms: _88  and  _91
REMARK   38  A    between atoms: _91  and  _92
REMARK   39  A    between atoms: _95  and  _97
REMARK   40  A    between atoms: _97  and  _98
REMARK   41  A    between atoms: _97  and  _100
REMARK   42  A    between atoms: _103  and  _105
REMARK   43  A    between atoms: _105  and  _106
REMARK   44  A    between atoms: _109  and  _111
REMARK   45  A    between atoms: _111  and  _112
REMARK   46  A    between atoms: _111  and  _114
REMARK   47  A    between atoms: _117  and  _119
REMARK   48  A    between atoms: _119  and  _120
REMARK   49  A    between atoms: _119  and  _122
REMARK   50  A    between atoms: _122  and  _123
REMARK   51  A    between atoms: _123  and  _124
REMARK   52  A    between atoms: _124  and  _125
REMARK   53  A    between atoms: _125  and  _126
REMARK   54  A    between atoms: _130  and  _132
REMARK   55  A    between atoms: _132  and  _133
REMARK   56  A    between atoms: _132  and  _135
REMARK   57  A    between atoms: _135  and  _136
REMARK   58  A    between atoms: _139  and  _141
REMARK   59  A    between atoms: _141  and  _142
REMARK   60  A    between atoms: _141  and  _144
REMARK   61  A    between atoms: _144  and  _145
REMARK   62  A    between atoms: _145  and  _146
REMARK   63  A    between atoms: _149  and  _151
REMARK   64  A    between atoms: _151  and  _152
REMARK   65  A    between atoms: _151  and  _154
REMARK   66  A    between atoms: _154  and  _155
REMARK   67  A    between atoms: _161  and  _163
REMARK   68  A    between atoms: _163  and  _164
REMARK   69  A    between atoms: _163  and  _166
REMARK   70  A    between atoms: _166  and  _167
REMARK   71  A    between atoms: _167  and  _168
REMARK   72  A    between atoms: _168  and  _169
REMARK   73  A    between atoms: _169  and  _170
REMARK   74  A    between atoms: _174  and  _176
REMARK   75  A    between atoms: _176  and  _177
REMARK   76  A    between atoms: _176  and  _179
REMARK   77  A    between atoms: _179  and  _180
REMARK   78  A    between atoms: _180  and  _181
REMARK   79  A    between atoms: _184  and  _186
REMARK   80  A    between atoms: _186  and  _187
REMARK   81  A    between atoms: _190  and  _192
REMARK   82  A    between atoms: _192  and  _193
REMARK   83  A    between atoms: _192  and  _195
REMARK   84  A    between atoms: _198  and  _200
REMARK   85  A    between atoms: _200  and  _201
REMARK   86  A    between atoms: _200  and  _203
REMARK   87  A    between atoms: _203  and  _204
REMARK   88  A    between atoms: _204  and  _205
REMARK   89  A    between atoms: _207  and  _209
REMARK   90  A    between atoms: _209  and  _210
REMARK   91  A    between atoms: _209  and  _212
REMARK   92  A    between atoms: _212  and  _213
REMARK   93  A    between atoms: _213  and  _214
REMARK   94  A    between atoms: _214  and  _215
REMARK   95  A    between atoms: _215  and  _216
REMARK   96  A    between atoms: _220  and  _222
REMARK   97  A    between atoms: _222  and  _223
REMARK   98  A    between atoms: _222  and  _225
REMARK   99  A    between atoms: _225  and  _226
REMARK  100  A    between atoms: _229  and  _231
REMARK  101  A    between atoms: _231  and  _232
REMARK  102  A    between atoms: _231  and  _234
REMARK  103  A    between atoms: _234  and  _235
REMARK  104  A    between atoms: _238  and  _240
REMARK  105  A    between atoms: _240  and  _241
REMARK  106  A    between atoms: _240  and  _243
REMARK  107  A    between atoms: _246  and  _248
REMARK  108  A    between atoms: _248  and  _249
REMARK  109  A    between atoms: _248  and  _251
REMARK  110  A    between atoms: _251  and  _252
REMARK  111  A    between atoms: _252  and  _253
REMARK  112  A    between atoms: _258  and  _260
REMARK  113  A    between atoms: _260  and  _261
REMARK  114  A    between atoms: _260  and  _263
REMARK  115  A    between atoms: _263  and  _264
REMARK  116  A    between atoms: _267  and  _269
REMARK  117  A    between atoms: _269  and  _270
REMARK  118  A    between atoms: _269  and  _272
REMARK  119  A    between atoms: _272  and  _273
REMARK  120  A    between atoms: _276  and  _278
REMARK  121  A    between atoms: _278  and  _279
REMARK  122  A    between atoms: _281  and  _283
REMARK  123  A    between atoms: _283  and  _284
REMARK  124  A    between atoms: _283  and  _286
REMARK  125  A    between atoms: _286  and  _287
REMARK  126  A    between atoms: _292  and  _293
REMARK  127  A    between atoms: _295  and  _297
REMARK  128  A    between atoms: _297  and  _298
REMARK  129  A    between atoms: _297  and  _300
REMARK  130  A    between atoms: _300  and  _301
REMARK  131  A    between atoms: _304  and  _306
REMARK  132  A    between atoms: _306  and  _307
REMARK  133  A    between atoms: _306  and  _309
REMARK  134  A    between atoms: _312  and  _314
REMARK  135  A    between atoms: _314  and  _315
REMARK  136  A    between atoms: _314  and  _317
REMARK  137  A    between atoms: _317  and  _318
REMARK  138  A    between atoms: _321  and  _323
REMARK  139  A    between atoms: _323  and  _324
REMARK  140  A    between atoms: _323  and  _326
REMARK  141  A    between atoms: _326  and  _327
REMARK  142  A    between atoms: _327  and  _328
REMARK  143  A    between atoms: _331  and  _333
REMARK  144  A    between atoms: _333  and  _334
REMARK  145  A    between atoms: _333  and  _336
REMARK  146  A    between atoms: _336  and  _337
REMARK  147  A    between atoms: _342  and  _343
REMARK  148  A    between atoms: _345  and  _347
REMARK  149  A    between atoms: _347  and  _348
REMARK  150  A    between atoms: _347  and  _350
REMARK  151  A    between atoms: _350  and  _351
REMARK  152  A    between atoms: _351  and  _352
REMARK  153  A    between atoms: _355  and  _356
REMARK  154  A    between atoms: _361  and  _363
REMARK  155  A    between atoms: _363  and  _364
REMARK  156  A    between atoms: _363  and  _366
REMARK  157  A    between atoms: _366  and  _367
REMARK  158  A    between atoms: _372  and  _373
REMARK  159  A    between atoms: _375  and  _377
REMARK  160  A    between atoms: _377  and  _378
REMARK  161  A    between atoms: _380  and  _382
REMARK  162  A    between atoms: _382  and  _383
REMARK  163  A    between atoms: _382  and  _385
REMARK  164  A    between atoms: _385  and  _386
REMARK  165  A    between atoms: _391  and  _393
REMARK  166  A    between atoms: _393  and  _394
REMARK  167  A    between atoms: _393  and  _396
REMARK  168  A    between atoms: _396  and  _397
REMARK  169  A    between atoms: _400  and  _402
REMARK  170  A    between atoms: _402  and  _403
REMARK  171  A    between atoms: _402  and  _405
REMARK  172  A    between atoms: _405  and  _406
REMARK  173  A    between atoms: _411  and  _413
REMARK  174  A    between atoms: _413  and  _414
REMARK  175  A    between atoms: _413  and  _416
REMARK  176  A    between atoms: _416  and  _417
REMARK  177  A    between atoms: _423  and  _425
REMARK  178  A    between atoms: _425  and  _426
REMARK  179  A    between atoms: _425  and  _428
REMARK  180  A    between atoms: _428  and  _429
REMARK  181  A    between atoms: _432  and  _434
REMARK  182  A    between atoms: _434  and  _435
REMARK  183  A    between atoms: _434  and  _437
REMARK  184  A    between atoms: _437  and  _438
REMARK  185  A    between atoms: _443  and  _445
REMARK  186  A    between atoms: _445  and  _446
REMARK  187  A    between atoms: _445  and  _448
REMARK  188  A    between atoms: _448  and  _449
REMARK  189  A    between atoms: _449  and  _450
REMARK  190  A    between atoms: _450  and  _451
REMARK  191  A    between atoms: _460  and  _462
REMARK  192  A    between atoms: _462  and  _463
REMARK  193  A    between atoms: _462  and  _465
REMARK  194  A    between atoms: _465  and  _466
REMARK  195  A    between atoms: _469  and  _471
REMARK  196  A    between atoms: _471  and  _472
REMARK  197  A    between atoms: _471  and  _474
REMARK  198  A    between atoms: _474  and  _475
REMARK  199  A    between atoms: _475  and  _476
REMARK  200  A    between atoms: _476  and  _477
REMARK  201  A    between atoms: _486  and  _488
REMARK  202  A    between atoms: _488  and  _489
REMARK  203  A    between atoms: _488  and  _491
REMARK  204  A    between atoms: _491  and  _492
REMARK  205  A    between atoms: _497  and  _499
REMARK  206  A    between atoms: _499  and  _500
REMARK  207  A    between atoms: _499  and  _502
REMARK  208  A    between atoms: _504  and  _506
REMARK  209  A    between atoms: _506  and  _507
REMARK  210  A    between atoms: _506  and  _509
REMARK  211  A    between atoms: _509  and  _510
REMARK  212  A    between atoms: _513  and  _515
REMARK  213  A    between atoms: _515  and  _516
REMARK  214  A    between atoms: _515  and  _518
REMARK  215  A    between atoms: _521  and  _523
REMARK  216  A    between atoms: _523  and  _524
REMARK  217  A    between atoms: _523  and  _526
REMARK  218  A    between atoms: _526  and  _527
REMARK  219  A    between atoms: _527  and  _528
REMARK  220  A    between atoms: _528  and  _529
REMARK  221  A    between atoms: _529  and  _530
REMARK  222  A    between atoms: _534  and  _536
REMARK  223  A    between atoms: _536  and  _537
REMARK  224  A    between atoms: _536  and  _539
REMARK  225  A    between atoms: _542  and  _544
REMARK  226  A    between atoms: _544  and  _545
REMARK  227  A    between atoms: _548  and  _550
REMARK  228  A    between atoms: _550  and  _551
REMARK  229  A    between atoms: _550  and  _553
REMARK  230  A    between atoms: _553  and  _554
REMARK  231  A    between atoms: _557  and  _559
REMARK  232  A    between atoms: _559  and  _560
REMARK  233  A    between atoms: _559  and  _562
REMARK  234  A    between atoms: _562  and  _563
REMARK  235  A    between atoms: _569  and  _571
REMARK  236  A    between atoms: _571  and  _572
REMARK  237  A    between atoms: _574  and  _576
REMARK  238  A    between atoms: _576  and  _577
REMARK  239  A    between atoms: _576  and  _579
REMARK  240  A    between atoms: _579  and  _580
REMARK  241  A    between atoms: _583  and  _585
REMARK  242  A    between atoms: _585  and  _586
REMARK  243  A    between atoms: _585  and  _588
REMARK  244  A    between atoms: _588  and  _589
REMARK                            x       y       z     vdW  Elec       q    Type
REMARK                         _______ _______ _______ _____ _____    ______ ____
ROOT
ATOM      1  C   GLU A   1      19.445  15.535   9.919  0.00  0.00    +0.238 C 
ATOM      2  O   GLU A   1      19.882  14.797  10.820  0.00  0.00    -0.274 OA
ATOM      3  N   PHE A   2      18.388  15.216   9.174  0.00  0.00    -0.298 N 
ATOM      4  H   PHE A   2      18.035  15.892   8.467  0.00  0.00    +0.150 HD
ENDROOT
BRANCH   1   5
ATOM      5  CA  GLU A   1      20.103  16.859   9.612  0.00  0.00    +0.145 C 
BRANCH   5   6
ATOM      6  N   GLU A   1      20.137  17.168   8.159  0.00  0.00    -0.238 NA
ATOM      7  H   GLU A   1      19.637  18.003   7.792  0.00  0.00    +0.142 HD
ENDBRANCH   5   6
BRANCH   5   8
ATOM      8  CB  GLU A   1      19.416  17.988  10.406  0.00  0.00    +0.038 C 
BRANCH   8   9
ATOM      9  CG  GLU A   1      20.198  19.330  10.420  0.00  0.00    +0.116 C 
BRANCH   9  10
ATOM     10  CD  GLU A   1      21.661  19.186  10.886  0.00  0.00    +0.365 C 
ATOM     11  OE2 GLU A   1      21.965  18.274  11.698  0.00  0.00    -0.246 OA
ATOM     12  OE1 GLU A   1      22.508  19.991  10.430  0.00  0.00    -0.246 OA
ENDBRANCH   9  10
ENDBRANCH   8   9
ENDBRANCH   5   8
ENDBRANCH   1   5
BRANCH   3  13
ATOM     13  CA  PHE A   2      17.716  13.923   9.339  0.00  0.00    +0.141 C 
BRANCH  13  14
ATOM     14  C   PHE A   2      18.680  12.781   8.992  0.00  0.00    +0.227 C 
ATOM     15  O   PHE A   2      18.817  11.834   9.756  0.00  0.00    -0.286 OA
ENDBRANCH  13  14
BRANCH  13  16
ATOM     16  CB  PHE A   2      16.459  13.869   8.456  0.00  0.00    +0.054 C 
BRANCH  16  17
ATOM     17  CG  PHE A   2      15.546  12.729   8.764  0.00  0.00    -0.020 A 
ATOM     18  CD2 PHE A   2      14.460  12.905   9.609  0.00  0.00    -0.004 A 
ATOM     19  CE2 PHE A   2      13.611  11.839   9.909  0.00  0.00    -0.000 A 
ATOM     20  CZ  PHE A   2      13.822  10.609   9.336  0.00  0.00    -0.000 A 
ATOM     21  CE1 PHE A   2      14.904  10.415   8.492  0.00  0.00    -0.000 A 
ATOM     22  CD1 PHE A   2      15.754  11.476   8.202  0.00  0.00    -0.004 A 
ENDBRANCH  16  17
ENDBRANCH  13  16
ENDBRANCH   3  13
TORSDOF 9
REMARK  Name = ../refined-set-2016/3gvu/3gvu_pocket.pdb
REMARK  244 active torsions:
REMARK  status: ('A' for Active; 'I' for Inactive)
REMARK    1  A    between atoms: _1  and  _3
REMARK    2  A    between atoms: _3  and  _4
REMARK    3  A    between atoms: _3  and  _6
REMARK    4  A    between atoms: _6  and  _7
REMARK    5  A    between atoms: _10  and  _12
REMARK    6  A    between atoms: _12  and  _13
REMARK    7  A    between atoms: _15  and  _17
REMARK    8  A    between atoms: _17  and  _18
REMARK    9  A    between atoms: _17  and  _20
REMARK   10  A    between atoms: _20  and  _21
REMARK   11  A    between atoms: _21  and  _22
REMARK   12  A    between atoms: _27  and  _29
REMARK   13  A    between atoms: _29  and  _30
REMARK   14  A    between atoms: _29  and  _32
REMARK   15  A    between atoms: _32  and  _33
REMARK   16  A    between atoms: _38  and  _39
REMARK   17  A    between atoms: _41  and  _43
REMARK   18  A    between atoms: _43  and  _44
REMARK   19  A    between atoms: _46  and  _48
REMARK   20  A    between atoms: _48  and  _49
REMARK   21  A    between atoms: _48  and  _51
REMARK   22  A    between atoms: _51  and  _52
REMARK   23  A    between atoms: _52  and  _53
REMARK   24  A    between atoms: _56  and  _58
REMARK   25  A    between atoms: _58  and  _59
REMARK   26  A    between atoms: _58  and  _61
REMARK   27  A    between atoms: _64  and  _66
REMARK   28  A    between atoms: _66  and  _67
REMARK   29  A    between atoms: _66  and  _69
REMARK   30  A    between atoms: _69  and  _70
REMARK   31  A    between atoms: _75  and  _76
REMARK   32  A    between atoms: _78  and  _80
REMARK   33  A    between atoms: _80  and  _81
REMARK   34  A    between atoms: _80  and  _83
REMARK   35  A    between atoms: _86  and  _88
REMARK   36  A    between atoms: _88  and  _89
REMARK   37  A    between atoms: _88  and  _91
REMARK   38  A    between atoms: _91  and  _92
REMARK   39  A    between atoms: _95  and  _97
REMARK   40  A    between atoms: _97  and  _98
REMARK   41  A    between atoms: _97  and  _100
REMARK   42  A    between atoms: _103  and  _105
REMARK   43  A    between atoms: _105  and  _106
REMARK   44  A    between atoms: _109  and  _111
REMARK   45  A    between atoms: _111  and  _112
REMARK   46  A    between atoms: _111  and  _114
REMARK   47  A    between atoms: _117  and  _119
REMARK   48  A    between atoms: _119  and  _120
REMARK   49  A    between atoms: _119  and  _122
REMARK   50  A    between atoms: _122  and  _123
REMARK   51  A    between atoms: _123  and  _124
REMARK   52  A    between atoms: _124  and  _125
REMARK   53  A    between atoms: _125  and  _126
REMARK   54  A    between atoms: _130  and  _132
REMARK   55  A    between atoms: _132  and  _133
REMARK   56  A    between atoms: _132  and  _135
REMARK   57  A    between atoms: _135  and  _136
REMARK   58  A    between atoms: _139  and  _141
REMARK   59  A    between atoms: _141  and  _142
REMARK   60  A    between atoms: _141  and  _144
REMARK   61  A    between atoms: _144  and  _145
REMARK   62  A    between atoms: _145  and  _146
REMARK   63  A    between atoms: _149  and  _151
REMARK   64  A    between atoms: _151  and  _152
REMARK   65  A    between atoms: _151  and  _154
REMARK   66  A    between atoms: _154  and  _155
REMARK   67  A    between atoms: _161  and  _163
REMARK   68  A    between atoms: _163  and  _164
REMARK   69  A    between atoms: _163  and  _166
REMARK   70  A    between atoms: _166  and  _167
REMARK   71  A    between atoms: _167  and  _168
REMARK   72  A    between atoms: _168  and  _169
REMARK   73  A    between atoms: _169  and  _170
REMARK   74  A    between atoms: _174  and  _176
REMARK   75  A    between atoms: _176  and  _177
REMARK   76  A    between atoms: _176  and  _179
REMARK   77  A    between atoms: _179  and  _180
REMARK   78  A    between atoms: _180  and  _181
REMARK   79  A    between atoms: _184  and  _186
REMARK   80  A    between atoms: _186  and  _187
REMARK   81  A    between atoms: _190  and  _192
REMARK   82  A    between atoms: _192  and  _193
REMARK   83  A    between atoms: _192  and  _195
REMARK   84  A    between atoms: _198  and  _200
REMARK   85  A    between atoms: _200  and  _201
REMARK   86  A    between atoms: _200  and  _203
REMARK   87  A    between atoms: _203  and  _204
REMARK   88  A    between atoms: _204  and  _205
REMARK   89  A    between atoms: _207  and  _209
REMARK   90  A    between atoms: _209  and  _210
REMARK   91  A    between atoms: _209  and  _212
REMARK   92  A    between atoms: _212  and  _213
REMARK   93  A    between atoms: _213  and  _214
REMARK   94  A    between atoms: _214  and  _215
REMARK   95  A    between atoms: _215  and  _216
REMARK   96  A    between atoms: _220  and  _222
REMARK   97  A    between atoms: _222  and  _223
REMARK   98  A    between atoms: _222  and  _225
REMARK   99  A    between atoms: _225  and  _226
REMARK  100  A    between atoms: _229  and  _231
REMARK  101  A    between atoms: _231  and  _232
REMARK  102  A    between atoms: _231  and  _234
REMARK  103  A    between atoms: _234  and  _235
REMARK  104  A    between atoms: _238  and  _240
REMARK  105  A    between atoms: _240  and  _241
REMARK  106  A    between atoms: _240  and  _243
REMARK  107  A    between atoms: _246  and  _248
REMARK  108  A    between atoms: _248  and  _249
REMARK  109  A    between atoms: _248  and  _251
REMARK  110  A    between atoms: _251  and  _252
REMARK  111  A    between atoms: _252  and  _253
REMARK  112  A    between atoms: _258  and  _260
REMARK  113  A    between atoms: _260  and  _261
REMARK  114  A    between atoms: _260  and  _263
REMARK  115  A    between atoms: _263  and  _264
REMARK  116  A    between atoms: _267  and  _269
REMARK  117  A    between atoms: _269  and  _270
REMARK  118  A    between atoms: _269  and  _272
REMARK  119  A    between atoms: _272  and  _273
REMARK  120  A    between atoms: _276  and  _278
REMARK  121  A    between atoms: _278  and  _279
REMARK  122  A    between atoms: _281  and  _283
REMARK  123  A    between atoms: _283  and  _284
REMARK  124  A    between atoms: _283  and  _286
REMARK  125  A    between atoms: _286  and  _287
REMARK  126  A    between atoms: _292  and  _293
REMARK  127  A    between atoms: _295  and  _297
REMARK  128  A    between atoms: _297  and  _298
REMARK  129  A    between atoms: _297  and  _300
REMARK  130  A    between atoms: _300  and  _301
REMARK  131  A    between atoms: _304  and  _306
REMARK  132  A    between atoms: _306  and  _307
REMARK  133  A    between atoms: _306  and  _309
REMARK  134  A    between atoms: _312  and  _314
REMARK  135  A    between atoms: _314  and  _315
REMARK  136  A    between atoms: _314  and  _317
REMARK  137  A    between atoms: _317  and  _318
REMARK  138  A    between atoms: _321  and  _323
REMARK  139  A    between atoms: _323  and  _324
REMARK  140  A    between atoms: _323  and  _326
REMARK  141  A    between atoms: _326  and  _327
REMARK  142  A    between atoms: _327  and  _328
REMARK  143  A    between atoms: _331  and  _333
REMARK  144  A    between atoms: _333  and  _334
REMARK  145  A    between atoms: _333  and  _336
REMARK  146  A    between atoms: _336  and  _337
REMARK  147  A    between atoms: _342  and  _343
REMARK  148  A    between atoms: _345  and  _347
REMARK  149  A    between atoms: _347  and  _348
REMARK  150  A    between atoms: _347  and  _350
REMARK  151  A    between atoms: _350  and  _351
REMARK  152  A    between atoms: _351  and  _352
REMARK  153  A    between atoms: _355  and  _356
REMARK  154  A    between atoms: _361  and  _363
REMARK  155  A    between atoms: _363  and  _364
REMARK  156  A    between atoms: _363  and  _366
REMARK  157  A    between atoms: _366  and  _367
REMARK  158  A    between atoms: _372  and  _373
REMARK  159  A    between atoms: _375  and  _377
REMARK  160  A    between atoms: _377  and  _378
REMARK  161  A    between atoms: _380  and  _382
REMARK  162  A    between atoms: _382  and  _383
REMARK  163  A    between atoms: _382  and  _385
REMARK  164  A    between atoms: _385  and  _386
REMARK  165  A    between atoms: _391  and  _393
REMARK  166  A    between atoms: _393  and  _394
REMARK  167  A    between atoms: _393  and  _396
REMARK  168  A    between atoms: _396  and  _397
REMARK  169  A    between atoms: _400  and  _402
REMARK  170  A    between atoms: _402  and  _403
REMARK  171  A    between atoms: _402  and  _405
REMARK  172  A    between atoms: _405  and  _406
REMARK  173  A    between atoms: _411  and  _413
REMARK  174  A    between atoms: _413  and  _414
REMARK  175  A    between atoms: _413  and  _416
REMARK  176  A    between atoms: _416  and  _417
REMARK  177  A    between atoms: _423  and  _425
REMARK  178  A    between atoms: _425  and  _426
REMARK  179  A    between atoms: _425  and  _428
REMARK  180  A    between atoms: _428  and  _429
REMARK  181  A    between atoms: _432  and  _434
REMARK  182  A    between atoms: _434  and  _435
REMARK  183  A    between atoms: _434  and  _437
REMARK  184  A    between atoms: _437  and  _438
REMARK  185  A    between atoms: _443  and  _445
REMARK  186  A    between atoms: _445  and  _446
REMARK  187  A    between atoms: _445  and  _448
REMARK  188  A    between atoms: _448  and  _449
REMARK  189  A    between atoms: _449  and  _450
REMARK  190  A    between atoms: _450  and  _451
REMARK  191  A    between atoms: _460  and  _462
REMARK  192  A    between atoms: _462  and  _463
REMARK  193  A    between atoms: _462  and  _465
REMARK  194  A    between atoms: _465  and  _466
REMARK  195  A    between atoms: _469  and  _471
REMARK  196  A    between atoms: _471  and  _472
REMARK  197  A    between atoms: _471  and  _474
REMARK  198  A    between atoms: _474  and  _475
REMARK  199  A    between atoms: _475  and  _476
REMARK  200  A    between atoms: _476  and  _477
REMARK  201  A    between atoms: _486  and  _488
REMARK  202  A    between atoms: _488  and  _489
REMARK  203  A    between atoms: _488  and  _491
REMARK  204  A    between atoms: _491  and  _492
REMARK  205  A    between atoms: _497  and  _499
REMARK  206  A    between atoms: _499  and  _500
REMARK  207  A    between atoms: _499  and  _502
REMARK  208  A    between atoms: _504  and  _506
REMARK  209  A    between atoms: _506  and  _507
REMARK  210  A    between atoms: _506  and  _509
REMARK  211  A    between atoms: _509  and  _510
REMARK  212  A    between atoms: _513  and  _515
REMARK  213  A    between atoms: _515  and  _516
REMARK  214  A    between atoms: _515  and  _518
REMARK  215  A    between atoms: _521  and  _523
REMARK  216  A    between atoms: _523  and  _524
REMARK  217  A    between atoms: _523  and  _526
REMARK  218  A    between atoms: _526  and  _527
REMARK  219  A    between atoms: _527  and  _528
REMARK  220  A    between atoms: _528  and  _529
REMARK  221  A    between atoms: _529  and  _530
REMARK  222  A    between atoms: _534  and  _536
REMARK  223  A    between atoms: _536  and  _537
REMARK  224  A    between atoms: _536  and  _539
REMARK  225  A    between atoms: _542  and  _544
REMARK  226  A    between atoms: _544  and  _545
REMARK  227  A    between atoms: _548  and  _550
REMARK  228  A    between atoms: _550  and  _551
REMARK  229  A    between atoms: _550  and  _553
REMARK  230  A    between atoms: _553  and  _554
REMARK  231  A    between atoms: _557  and  _559
REMARK  232  A    between atoms: _559  and  _560
REMARK  233  A    between atoms: _559  and  _562
REMARK  234  A    between atoms: _562  and  _563
REMARK  235  A    between atoms: _569  and  _571
REMARK  236  A    between atoms: _571  and  _572
REMARK  237  A    between atoms: _574  and  _576
REMARK  238  A    between atoms: _576  and  _577
REMARK  239  A    between atoms: _576  and  _579
REMARK  240  A    between atoms: _579  and  _580
REMARK  241  A    between atoms: _583  and  _585
REMARK  242  A    between atoms: _585  and  _586
REMARK  243  A    between atoms: _585  and  _588
REMARK  244  A    between atoms: _588  and  _589
REMARK                            x       y       z     vdW  Elec       q    Type
REMARK                         _______ _______ _______ _____ _____    ______ ____
ROOT
ATOM      1  C   LYS A   1      22.586  12.154  11.248  0.00  0.00    +0.238 C 
ATOM      2  O   LYS A   1      23.338  11.403  11.863  0.00  0.00    -0.274 OA
ATOM      3  N   GLU A   2      21.356  12.440  11.667  0.00  0.00    -0.297 N 
ATOM      4  H   GLU A   2      20.794  13.154  11.161  0.00  0.00    +0.150 HD
ENDROOT
BRANCH   1   5
ATOM      5  CA  LYS A   1      23.049  12.834   9.963  0.00  0.00    +0.145 C 
BRANCH   5   6
ATOM      6  N   LYS A   1      21.943  12.857   8.989  0.00  0.00    -0.238 NA
ATOM      7  H   LYS A   1      21.483  13.763   8.766  0.00  0.00    +0.142 HD
ENDBRANCH   5   6
BRANCH   5   8
ATOM      8  CB  LYS A   1      23.550  14.253  10.311  0.00  0.00    +0.026 C 
BRANCH   8   9
ATOM      9  CG  LYS A   1      24.468  14.925   9.267  0.00  0.00    -0.000 C 
BRANCH   9  10
ATOM     10  CD  LYS A   1      25.069  16.275   9.776  0.00  0.00    -0.024 C 
BRANCH  10  11
ATOM     11  CE  LYS A   1      25.633  17.123   8.624  0.00  0.00    -0.086 C 
BRANCH  11  12
ATOM     12  NZ  LYS A   1      26.747  18.045   9.022  0.00  0.00    +0.380 N 
ATOM     13  HZ1 LYS A   1      26.405  18.707   9.748  0.00  0.00    -0.089 HD
ATOM     14  HZ2 LYS A   1      27.537  17.487   9.404  0.00  0.00    -0.089 HD
ATOM     15  HZ3 LYS A   1      27.069  18.578   8.189  0.00  0.00    -0.089 HD
ENDBRANCH  11  12
ENDBRANCH  10  11
ENDBRANCH   9  10
ENDBRANCH   8   9
ENDBRANCH   5   8
ENDBRANCH   1   5
BRANCH   3  16
ATOM     16  CA  GLU A   2      20.787  11.766  12.826  0.00  0.00    +0.149 C 
BRANCH  16  17
ATOM     17  C   GLU A   2      20.753  10.246  12.573  0.00  0.00    +0.241 C 
ATOM     18  O   GLU A   2      21.128   9.483  13.452  0.00  0.00    -0.273 OA
ATOM     19  N   ALA A   3      20.307   9.804  11.395  0.00  0.00    -0.298 N 
ATOM     20  H   ALA A   3      19.983  10.474  10.669  0.00  0.00    +0.150 HD
BRANCH  19  21
ATOM     21  CA  ALA A   3      20.280   8.360  11.139  0.00  0.00    +0.137 C 
ATOM     22  CB  ALA A   3      19.668   8.024   9.790  0.00  0.00    +0.030 C 
BRANCH  21  23
ATOM     23  C   ALA A   3      21.712   7.845  11.223  0.00  0.00    +0.227 C 
ATOM     24  O   ALA A   3      21.959   6.819  11.826  0.00  0.00    -0.286 OA
ENDBRANCH  21  23
ENDBRANCH  19  21
ENDBRANCH  16  17
BRANCH  16  25
ATOM     25  CB  GLU A   2      19.375  12.267  13.163  0.00  0.00    +0.041 C 
BRANCH  25  26
ATOM     26  CG  GLU A   2      18.727  11.503  14.333  0.00  0.00    +0.116 C 
BRANCH  26  27
ATOM     27  CD  GLU A   2      17.387  12.030  14.774  0.00  0.00    +0.365 C 
ATOM     28  OE2 GLU A   2      16.946  11.610  15.861  0.00  0.00    -0.246 OA
ATOM     29  OE1 GLU A   2      16.768  12.855  14.071  0.00  0.00    -0.246 OA
ENDBRANCH  26  27
ENDBRANCH  25  26
ENDBRANCH  16  25
ENDBRANCH   3  16
TORSDOF 14
REMARK  Name = ../refined-set-2016/3gvu/3gvu_pocket.pdb
REMARK  244 active torsions:
REMARK  status: ('A' for Active; 'I' for Inactive)
REMARK    1  A    between atoms: _1  and  _3
REMARK    2  A    between atoms: _3  and  _4
REMARK    3  A    between atoms: _3  and  _6
REMARK    4  A    between atoms: _6  and  _7
REMARK    5  A    between atoms: _10  and  _12
REMARK    6  A    between atoms: _12  and  _13
REMARK    7  A    between atoms: _15  and  _17
REMARK    8  A    between atoms: _17  and  _18
REMARK    9  A    between atoms: _17  and  _20
REMARK   10  A    between atoms: _20  and  _21
REMARK   11  A    between atoms: _21  and  _22
REMARK   12  A    between atoms: _27  and  _29
REMARK   13  A    between atoms: _29  and  _30
REMARK   14  A    between atoms: _29  and  _32
REMARK   15  A    between atoms: _32  and  _33
REMARK   16  A    between atoms: _38  and  _39
REMARK   17  A    between atoms: _41  and  _43
REMARK   18  A    between atoms: _43  and  _44
REMARK   19  A    between atoms: _46  and  _48
REMARK   20  A    between atoms: _48  and  _49
REMARK   21  A    between atoms: _48  and  _51
REMARK   22  A    between atoms: _51  and  _52
REMARK   23  A    between atoms: _52  and  _53
REMARK   24  A    between atoms: _56  and  _58
REMARK   25  A    between atoms: _58  and  _59
REMARK   26  A    between atoms: _58  and  _61
REMARK   27  A    between atoms: _64  and  _66
REMARK   28  A    between atoms: _66  and  _67
REMARK   29  A    between atoms: _66  and  _69
REMARK   30  A    between atoms: _69  and  _70
REMARK   31  A    between atoms: _75  and  _76
REMARK   32  A    between atoms: _78  and  _80
REMARK   33  A    between atoms: _80  and  _81
REMARK   34  A    between atoms: _80  and  _83
REMARK   35  A    between atoms: _86  and  _88
REMARK   36  A    between atoms: _88  and  _89
REMARK   37  A    between atoms: _88  and  _91
REMARK   38  A    between atoms: _91  and  _92
REMARK   39  A    between atoms: _95  and  _97
REMARK   40  A    between atoms: _97  and  _98
REMARK   41  A    between atoms: _97  and  _100
REMARK   42  A    between atoms: _103  and  _105
REMARK   43  A    between atoms: _105  and  _106
REMARK   44  A    between atoms: _109  and  _111
REMARK   45  A    between atoms: _111  and  _112
REMARK   46  A    between atoms: _111  and  _114
REMARK   47  A    between atoms: _117  and  _119
REMARK   48  A    between atoms: _119  and  _120
REMARK   49  A    between atoms: _119  and  _122
REMARK   50  A    between atoms: _122  and  _123
REMARK   51  A    between atoms: _123  and  _124
REMARK   52  A    between atoms: _124  and  _125
REMARK   53  A    between atoms: _125  and  _126
REMARK   54  A    between atoms: _130  and  _132
REMARK   55  A    between atoms: _132  and  _133
REMARK   56  A    between atoms: _132  and  _135
REMARK   57  A    between atoms: _135  and  _136
REMARK   58  A    between atoms: _139  and  _141
REMARK   59  A    between atoms: _141  and  _142
REMARK   60  A    between atoms: _141  and  _144
REMARK   61  A    between atoms: _144  and  _145
REMARK   62  A    between atoms: _145  and  _146
REMARK   63  A    between atoms: _149  and  _151
REMARK   64  A    between atoms: _151  and  _152
REMARK   65  A    between atoms: _151  and  _154
REMARK   66  A    between atoms: _154  and  _155
REMARK   67  A    between atoms: _161  and  _163
REMARK   68  A    between atoms: _163  and  _164
REMARK   69  A    between atoms: _163  and  _166
REMARK   70  A    between atoms: _166  and  _167
REMARK   71  A    between atoms: _167  and  _168
REMARK   72  A    between atoms: _168  and  _169
REMARK   73  A    between atoms: _169  and  _170
REMARK   74  A    between atoms: _174  and  _176
REMARK   75  A    between atoms: _176  and  _177
REMARK   76  A    between atoms: _176  and  _179
REMARK   77  A    between atoms: _179  and  _180
REMARK   78  A    between atoms: _180  and  _181
REMARK   79  A    between atoms: _184  and  _186
REMARK   80  A    between atoms: _186  and  _187
REMARK   81  A    between atoms: _190  and  _192
REMARK   82  A    between atoms: _192  and  _193
REMARK   83  A    between atoms: _192  and  _195
REMARK   84  A    between atoms: _198  and  _200
REMARK   85  A    between atoms: _200  and  _201
REMARK   86  A    between atoms: _200  and  _203
REMARK   87  A    between atoms: _203  and  _204
REMARK   88  A    between atoms: _204  and  _205
REMARK   89  A    between atoms: _207  and  _209
REMARK   90  A    between atoms: _209  and  _210
REMARK   91  A    between atoms: _209  and  _212
REMARK   92  A    between atoms: _212  and  _213
REMARK   93  A    between atoms: _213  and  _214
REMARK   94  A    between atoms: _214  and  _215
REMARK   95  A    between atoms: _215  and  _216
REMARK   96  A    between atoms: _220  and  _222
REMARK   97  A    between atoms: _222  and  _223
REMARK   98  A    between atoms: _222  and  _225
REMARK   99  A    between atoms: _225  and  _226
REMARK  100  A    between atoms: _229  and  _231
REMARK  101  A    between atoms: _231  and  _232
REMARK  102  A    between atoms: _231  and  _234
REMARK  103  A    between atoms: _234  and  _235
REMARK  104  A    between atoms: _238  and  _240
REMARK  105  A    between atoms: _240  and  _241
REMARK  106  A    between atoms: _240  and  _243
REMARK  107  A    between atoms: _246  and  _248
REMARK  108  A    between atoms: _248  and  _249
REMARK  109  A    between atoms: _248  and  _251
REMARK  110  A    between atoms: _251  and  _252
REMARK  111  A    between atoms: _252  and  _253
REMARK  112  A    between atoms: _258  and  _260
REMARK  113  A    between atoms: _260  and  _261
REMARK  114  A    between atoms: _260  and  _263
REMARK  115  A    between atoms: _263  and  _264
REMARK  116  A    between atoms: _267  and  _269
REMARK  117  A    between atoms: _269  and  _270
REMARK  118  A    between atoms: _269  and  _272
REMARK  119  A    between atoms: _272  and  _273
REMARK  120  A    between atoms: _276  and  _278
REMARK  121  A    between atoms: _278  and  _279
REMARK  122  A    between atoms: _281  and  _283
REMARK  123  A    between atoms: _283  and  _284
REMARK  124  A    between atoms: _283  and  _286
REMARK  125  A    between atoms: _286  and  _287
REMARK  126  A    between atoms: _292  and  _293
REMARK  127  A    between atoms: _295  and  _297
REMARK  128  A    between atoms: _297  and  _298
REMARK  129  A    between atoms: _297  and  _300
REMARK  130  A    between atoms: _300  and  _301
REMARK  131  A    between atoms: _304  and  _306
REMARK  132  A    between atoms: _306  and  _307
REMARK  133  A    between atoms: _306  and  _309
REMARK  134  A    between atoms: _312  and  _314
REMARK  135  A    between atoms: _314  and  _315
REMARK  136  A    between atoms: _314  and  _317
REMARK  137  A    between atoms: _317  and  _318
REMARK  138  A    between atoms: _321  and  _323
REMARK  139  A    between atoms: _323  and  _324
REMARK  140  A    between atoms: _323  and  _326
REMARK  141  A    between atoms: _326  and  _327
REMARK  142  A    between atoms: _327  and  _328
REMARK  143  A    between atoms: _331  and  _333
REMARK  144  A    between atoms: _333  and  _334
REMARK  145  A    between atoms: _333  and  _336
REMARK  146  A    between atoms: _336  and  _337
REMARK  147  A    between atoms: _342  and  _343
REMARK  148  A    between atoms: _345  and  _347
REMARK  149  A    between atoms: _347  and  _348
REMARK  150  A    between atoms: _347  and  _350
REMARK  151  A    between atoms: _350  and  _351
REMARK  152  A    between atoms: _351  and  _352
REMARK  153  A    between atoms: _355  and  _356
REMARK  154  A    between atoms: _361  and  _363
REMARK  155  A    between atoms: _363  and  _364
REMARK  156  A    between atoms: _363  and  _366
REMARK  157  A    between atoms: _366  and  _367
REMARK  158  A    between atoms: _372  and  _373
REMARK  159  A    between atoms: _375  and  _377
REMARK  160  A    between atoms: _377  and  _378
REMARK  161  A    between atoms: _380  and  _382
REMARK  162  A    between atoms: _382  and  _383
REMARK  163  A    between atoms: _382  and  _385
REMARK  164  A    between atoms: _385  and  _386
REMARK  165  A    between atoms: _391  and  _393
REMARK  166  A    between atoms: _393  and  _394
REMARK  167  A    between atoms: _393  and  _396
REMARK  168  A    between atoms: _396  and  _397
REMARK  169  A    between atoms: _400  and  _402
REMARK  170  A    between atoms: _402  and  _403
REMARK  171  A    between atoms: _402  and  _405
REMARK  172  A    between atoms: _405  and  _406
REMARK  173  A    between atoms: _411  and  _413
REMARK  174  A    between atoms: _413  and  _414
REMARK  175  A    between atoms: _413  and  _416
REMARK  176  A    between atoms: _416  and  _417
REMARK  177  A    between atoms: _423  and  _425
REMARK  178  A    between atoms: _425  and  _426
REMARK  179  A    between atoms: _425  and  _428
REMARK  180  A    between atoms: _428  and  _429
REMARK  181  A    between atoms: _432  and  _434
REMARK  182  A    between atoms: _434  and  _435
REMARK  183  A    between atoms: _434  and  _437
REMARK  184  A    between atoms: _437  and  _438
REMARK  185  A    between atoms: _443  and  _445
REMARK  186  A    between atoms: _445  and  _446
REMARK  187  A    between atoms: _445  and  _448
REMARK  188  A    between atoms: _448  and  _449
REMARK  189  A    between atoms: _449  and  _450
REMARK  190  A    between atoms: _450  and  _451
REMARK  191  A    between atoms: _460  and  _462
REMARK  192  A    between atoms: _462  and  _463
REMARK  193  A    between atoms: _462  and  _465
REMARK  194  A    between atoms: _465  and  _466
REMARK  195  A    between atoms: _469  and  _471
REMARK  196  A    between atoms: _471  and  _472
REMARK  197  A    between atoms: _471  and  _474
REMARK  198  A    between atoms: _474  and  _475
REMARK  199  A    between atoms: _475  and  _476
REMARK  200  A    between atoms: _476  and  _477
REMARK  201  A    between atoms: _486  and  _488
REMARK  202  A    between atoms: _488  and  _489
REMARK  203  A    between atoms: _488  and  _491
REMARK  204  A    between atoms: _491  and  _492
REMARK  205  A    between atoms: _497  and  _499
REMARK  206  A    between atoms: _499  and  _500
REMARK  207  A    between atoms: _499  and  _502
REMARK  208  A    between atoms: _504  and  _506
REMARK  209  A    between atoms: _506  and  _507
REMARK  210  A    between atoms: _506  and  _509
REMARK  211  A    between atoms: _509  and  _510
REMARK  212  A    between atoms: _513  and  _515
REMARK  213  A    between atoms: _515  and  _516
REMARK  214  A    between atoms: _515  and  _518
REMARK  215  A    between atoms: _521  and  _523
REMARK  216  A    between atoms: _523  and  _524
REMARK  217  A    between atoms: _523  and  _526
REMARK  218  A    between atoms: _526  and  _527
REMARK  219  A    between atoms: _527  and  _528
REMARK  220  A    between atoms: _528  and  _529
REMARK  221  A    between atoms: _529  and  _530
REMARK  222  A    between atoms: _534  and  _536
REMARK  223  A    between atoms: _536  and  _537
REMARK  224  A    between atoms: _536  and  _539
REMARK  225  A    between atoms: _542  and  _544
REMARK  226  A    between atoms: _544  and  _545
REMARK  227  A    between atoms: _548  and  _550
REMARK  228  A    between atoms: _550  and  _551
REMARK  229  A    between atoms: _550  and  _553
REMARK  230  A    between atoms: _553  and  _554
REMARK  231  A    between atoms: _557  and  _559
REMARK  232  A    between atoms: _559  and  _560
REMARK  233  A    between atoms: _559  and  _562
REMARK  234  A    between atoms: _562  and  _563
REMARK  235  A    between atoms: _569  and  _571
REMARK  236  A    between atoms: _571  and  _572
REMARK  237  A    between atoms: _574  and  _576
REMARK  238  A    between atoms: _576  and  _577
REMARK  239  A    between atoms: _576  and  _579
REMARK  240  A    between atoms: _579  and  _580
REMARK  241  A    between atoms: _583  and  _585
REMARK  242  A    between atoms: _585  and  _586
REMARK  243  A    between atoms: _585  and  _588
REMARK  244  A    between atoms: _588  and  _589
REMARK                            x       y       z     vdW  Elec       q    Type
REMARK                         _______ _______ _______ _____ _____    ______ ____
ROOT
ATOM      1  CA  MET A   2      22.338   6.510  15.641  0.00  0.00    +0.149 C 
ENDROOT
BRANCH   1   4
ATOM      2  C   VAL A   1      24.278   7.837  15.044  0.00  0.00    +0.238 C 
ATOM      3  O   VAL A   1      24.988   7.211  15.834  0.00  0.00    -0.274 OA
ATOM      4  N   MET A   2      22.998   7.537  14.848  0.00  0.00    -0.297 N 
ATOM      5  H   MET A   2      22.460   8.044  14.117  0.00  0.00    +0.150 HD
BRANCH   2   6
ATOM      6  CA  VAL A   1      24.832   9.022  14.241  0.00  0.00    +0.145 C 
BRANCH   6   7
ATOM      7  CB  VAL A   1      24.474  10.344  14.963  0.00  0.00    +0.025 C 
ATOM      8  CG2 VAL A   1      24.569  10.184  16.461  0.00  0.00    +0.002 C 
ATOM      9  CG1 VAL A   1      25.368  11.485  14.464  0.00  0.00    +0.002 C 
ENDBRANCH   6   7
BRANCH   6  10
ATOM     10  N   VAL A   1      24.329   9.021  12.873  0.00  0.00    -0.238 NA
ATOM     11  H   VAL A   1      23.718   9.800  12.555  0.00  0.00    +0.142 HD
ENDBRANCH   6  10
ENDBRANCH   2   6
ENDBRANCH   1   4
BRANCH   1  12
ATOM     12  C   MET A   2      22.842   5.108  15.322  0.00  0.00    +0.241 C 
ATOM     13  O   MET A   2      22.816   4.240  16.176  0.00  0.00    -0.273 OA
ATOM     14  N   LYS A   3      23.332   4.910  14.102  0.00  0.00    -0.298 N 
ATOM     15  H   LYS A   3      23.286   5.685  13.409  0.00  0.00    +0.150 HD
BRANCH  14  16
ATOM     16  CA  LYS A   3      23.928   3.650  13.706  0.00  0.00    +0.137 C 
BRANCH  16  17
ATOM     17  C   LYS A   3      25.243   3.405  14.408  0.00  0.00    +0.227 C 
ATOM     18  O   LYS A   3      25.678   2.265  14.444  0.00  0.00    -0.286 OA
ENDBRANCH  16  17
BRANCH  16  19
ATOM     19  CB  LYS A   3      24.180   3.618  12.194  0.00  0.00    +0.028 C 
BRANCH  19  20
ATOM     20  CG  LYS A   3      22.913   3.680  11.325  0.00  0.00    -0.000 C 
BRANCH  20  21
ATOM     21  CD  LYS A   3      23.302   3.743   9.833  0.00  0.00    -0.024 C 
BRANCH  21  22
ATOM     22  CE  LYS A   3      22.051   3.784   8.936  0.00  0.00    -0.086 C 
BRANCH  22  23
ATOM     23  NZ  LYS A   3      22.408   3.864   7.489  0.00  0.00    +0.380 N 
ATOM     24  HZ1 LYS A   3      22.962   4.727   7.317  0.00  0.00    -0.089 HD
ATOM     25  HZ2 LYS A   3      22.972   3.031   7.226  0.00  0.00    -0.089 HD
ATOM     26  HZ3 LYS A   3      21.538   3.890   6.919  0.00  0.00    -0.089 HD
ENDBRANCH  22  23
ENDBRANCH  21  22
ENDBRANCH  20  21
ENDBRANCH  19  20
ENDBRANCH  16  19
ENDBRANCH  14  16
ENDBRANCH   1  12
BRANCH   1  27
ATOM     27  CB  MET A   2      20.834   6.605  15.466  0.00  0.00    +0.041 C 
BRANCH  27  28
ATOM     28  CG  MET A   2      20.274   7.885  16.039  0.00  0.00    +0.060 C 
BRANCH  28  29
ATOM     29  SD  MET A   2      18.491   7.950  15.812  0.00  0.00    -0.139 S 
ATOM     30  CE  MET A   2      17.986   6.649  16.900  0.00  0.00    +0.069 C 
ENDBRANCH  28  29
ENDBRANCH  27  28
ENDBRANCH   1  27
TORSDOF 15
REMARK  Name = ../refined-set-2016/3gvu/3gvu_pocket.pdb
REMARK  244 active torsions:
REMARK  status: ('A' for Active; 'I' for Inactive)
REMARK    1  A    between atoms: _1  and  _3
REMARK    2  A    between atoms: _3  and  _4
REMARK    3  A    between atoms: _3  and  _6
REMARK    4  A    between atoms: _6  and  _7
REMARK    5  A    between atoms: _10  and  _12
REMARK    6  A    between atoms: _12  and  _13
REMARK    7  A    between atoms: _15  and  _17
REMARK    8  A    between atoms: _17  and  _18
REMARK    9  A    between atoms: _17  and  _20
REMARK   10  A    between atoms: _20  and  _21
REMARK   11  A    between atoms: _21  and  _22
REMARK   12  A    between atoms: _27  and  _29
REMARK   13  A    between atoms: _29  and  _30
REMARK   14  A    between atoms: _29  and  _32
REMARK   15  A    between atoms: _32  and  _33
REMARK   16  A    between atoms: _38  and  _39
REMARK   17  A    between atoms: _41  and  _43
REMARK   18  A    between atoms: _43  and  _44
REMARK   19  A    between atoms: _46  and  _48
REMARK   20  A    between atoms: _48  and  _49
REMARK   21  A    between atoms: _48  and  _51
REMARK   22  A    between atoms: _51  and  _52
REMARK   23  A    between atoms: _52  and  _53
REMARK   24  A    between atoms: _56  and  _58
REMARK   25  A    between atoms: _58  and  _59
REMARK   26  A    between atoms: _58  and  _61
REMARK   27  A    between atoms: _64  and  _66
REMARK   28  A    between atoms: _66  and  _67
REMARK   29  A    between atoms: _66  and  _69
REMARK   30  A    between atoms: _69  and  _70
REMARK   31  A    between atoms: _75  and  _76
REMARK   32  A    between atoms: _78  and  _80
REMARK   33  A    between atoms: _80  and  _81
REMARK   34  A    between atoms: _80  and  _83
REMARK   35  A    between atoms: _86  and  _88
REMARK   36  A    between atoms: _88  and  _89
REMARK   37  A    between atoms: _88  and  _91
REMARK   38  A    between atoms: _91  and  _92
REMARK   39  A    between atoms: _95  and  _97
REMARK   40  A    between atoms: _97  and  _98
REMARK   41  A    between atoms: _97  and  _100
REMARK   42  A    between atoms: _103  and  _105
REMARK   43  A    between atoms: _105  and  _106
REMARK   44  A    between atoms: _109  and  _111
REMARK   45  A    between atoms: _111  and  _112
REMARK   46  A    between atoms: _111  and  _114
REMARK   47  A    between atoms: _117  and  _119
REMARK   48  A    between atoms: _119  and  _120
REMARK   49  A    between atoms: _119  and  _122
REMARK   50  A    between atoms: _122  and  _123
REMARK   51  A    between atoms: _123  and  _124
REMARK   52  A    between atoms: _124  and  _125
REMARK   53  A    between atoms: _125  and  _126
REMARK   54  A    between atoms: _130  and  _132
REMARK   55  A    between atoms: _132  and  _133
REMARK   56  A    between atoms: _132  and  _135
REMARK   57  A    between atoms: _135  and  _136
REMARK   58  A    between atoms: _139  and  _141
REMARK   59  A    between atoms: _141  and  _142
REMARK   60  A    between atoms: _141  and  _144
REMARK   61  A    between atoms: _144  and  _145
REMARK   62  A    between atoms: _145  and  _146
REMARK   63  A    between atoms: _149  and  _151
REMARK   64  A    between atoms: _151  and  _152
REMARK   65  A    between atoms: _151  and  _154
REMARK   66  A    between atoms: _154  and  _155
REMARK   67  A    between atoms: _161  and  _163
REMARK   68  A    between atoms: _163  and  _164
REMARK   69  A    between atoms: _163  and  _166
REMARK   70  A    between atoms: _166  and  _167
REMARK   71  A    between atoms: _167  and  _168
REMARK   72  A    between atoms: _168  and  _169
REMARK   73  A    between atoms: _169  and  _170
REMARK   74  A    between atoms: _174  and  _176
REMARK   75  A    between atoms: _176  and  _177
REMARK   76  A    between atoms: _176  and  _179
REMARK   77  A    between atoms: _179  and  _180
REMARK   78  A    between atoms: _180  and  _181
REMARK   79  A    between atoms: _184  and  _186
REMARK   80  A    between atoms: _186  and  _187
REMARK   81  A    between atoms: _190  and  _192
REMARK   82  A    between atoms: _192  and  _193
REMARK   83  A    between atoms: _192  and  _195
REMARK   84  A    between atoms: _198  and  _200
REMARK   85  A    between atoms: _200  and  _201
REMARK   86  A    between atoms: _200  and  _203
REMARK   87  A    between atoms: _203  and  _204
REMARK   88  A    between atoms: _204  and  _205
REMARK   89  A    between atoms: _207  and  _209
REMARK   90  A    between atoms: _209  and  _210
REMARK   91  A    between atoms: _209  and  _212
REMARK   92  A    between atoms: _212  and  _213
REMARK   93  A    between atoms: _213  and  _214
REMARK   94  A    between atoms: _214  and  _215
REMARK   95  A    between atoms: _215  and  _216
REMARK   96  A    between atoms: _220  and  _222
REMARK   97  A    between atoms: _222  and  _223
REMARK   98  A    between atoms: _222  and  _225
REMARK   99  A    between atoms: _225  and  _226
REMARK  100  A    between atoms: _229  and  _231
REMARK  101  A    between atoms: _231  and  _232
REMARK  102  A    between atoms: _231  and  _234
REMARK  103  A    between atoms: _234  and  _235
REMARK  104  A    between atoms: _238  and  _240
REMARK  105  A    between atoms: _240  and  _241
REMARK  106  A    between atoms: _240  and  _243
REMARK  107  A    between atoms: _246  and  _248
REMARK  108  A    between atoms: _248  and  _249
REMARK  109  A    between atoms: _248  and  _251
REMARK  110  A    between atoms: _251  and  _252
REMARK  111  A    between atoms: _252  and  _253
REMARK  112  A    between atoms: _258  and  _260
REMARK  113  A    between atoms: _260  and  _261
REMARK  114  A    between atoms: _260  and  _263
REMARK  115  A    between atoms: _263  and  _264
REMARK  116  A    between atoms: _267  and  _269
REMARK  117  A    between atoms: _269  and  _270
REMARK  118  A    between atoms: _269  and  _272
REMARK  119  A    between atoms: _272  and  _273
REMARK  120  A    between atoms: _276  and  _278
REMARK  121  A    between atoms: _278  and  _279
REMARK  122  A    between atoms: _281  and  _283
REMARK  123  A    between atoms: _283  and  _284
REMARK  124  A    between atoms: _283  and  _286
REMARK  125  A    between atoms: _286  and  _287
REMARK  126  A    between atoms: _292  and  _293
REMARK  127  A    between atoms: _295  and  _297
REMARK  128  A    between atoms: _297  and  _298
REMARK  129  A    between atoms: _297  and  _300
REMARK  130  A    between atoms: _300  and  _301
REMARK  131  A    between atoms: _304  and  _306
REMARK  132  A    between atoms: _306  and  _307
REMARK  133  A    between atoms: _306  and  _309
REMARK  134  A    between atoms: _312  and  _314
REMARK  135  A    between atoms: _314  and  _315
REMARK  136  A    between atoms: _314  and  _317
REMARK  137  A    between atoms: _317  and  _318
REMARK  138  A    between atoms: _321  and  _323
REMARK  139  A    between atoms: _323  and  _324
REMARK  140  A    between atoms: _323  and  _326
REMARK  141  A    between atoms: _326  and  _327
REMARK  142  A    between atoms: _327  and  _328
REMARK  143  A    between atoms: _331  and  _333
REMARK  144  A    between atoms: _333  and  _334
REMARK  145  A    between atoms: _333  and  _336
REMARK  146  A    between atoms: _336  and  _337
REMARK  147  A    between atoms: _342  and  _343
REMARK  148  A    between atoms: _345  and  _347
REMARK  149  A    between atoms: _347  and  _348
REMARK  150  A    between atoms: _347  and  _350
REMARK  151  A    between atoms: _350  and  _351
REMARK  152  A    between atoms: _351  and  _352
REMARK  153  A    between atoms: _355  and  _356
REMARK  154  A    between atoms: _361  and  _363
REMARK  155  A    between atoms: _363  and  _364
REMARK  156  A    between atoms: _363  and  _366
REMARK  157  A    between atoms: _366  and  _367
REMARK  158  A    between atoms: _372  and  _373
REMARK  159  A    between atoms: _375  and  _377
REMARK  160  A    between atoms: _377  and  _378
REMARK  161  A    between atoms: _380  and  _382
REMARK  162  A    between atoms: _382  and  _383
REMARK  163  A    between atoms: _382  and  _385
REMARK  164  A    between atoms: _385  and  _386
REMARK  165  A    between atoms: _391  and  _393
REMARK  166  A    between atoms: _393  and  _394
REMARK  167  A    between atoms: _393  and  _396
REMARK  168  A    between atoms: _396  and  _397
REMARK  169  A    between atoms: _400  and  _402
REMARK  170  A    between atoms: _402  and  _403
REMARK  171  A    between atoms: _402  and  _405
REMARK  172  A    between atoms: _405  and  _406
REMARK  173  A    between atoms: _411  and  _413
REMARK  174  A    between atoms: _413  and  _414
REMARK  175  A    between atoms: _413  and  _416
REMARK  176  A    between atoms: _416  and  _417
REMARK  177  A    between atoms: _423  and  _425
REMARK  178  A    between atoms: _425  and  _426
REMARK  179  A    between atoms: _425  and  _428
REMARK  180  A    between atoms: _428  and  _429
REMARK  181  A    between atoms: _432  and  _434
REMARK  182  A    between atoms: _434  and  _435
REMARK  183  A    between atoms: _434  and  _437
REMARK  184  A    between atoms: _437  and  _438
REMARK  185  A    between atoms: _443  and  _445
REMARK  186  A    between atoms: _445  and  _446
REMARK  187  A    between atoms: _445  and  _448
REMARK  188  A    between atoms: _448  and  _449
REMARK  189  A    between atoms: _449  and  _450
REMARK  190  A    between atoms: _450  and  _451
REMARK  191  A    between atoms: _460  and  _462
REMARK  192  A    between atoms: _462  and  _463
REMARK  193  A    between atoms: _462  and  _465
REMARK  194  A    between atoms: _465  and  _466
REMARK  195  A    between atoms: _469  and  _471
REMARK  196  A    between atoms: _471  and  _472
REMARK  197  A    between atoms: _471  and  _474
REMARK  198  A    between atoms: _474  and  _475
REMARK  199  A    between atoms: _475  and  _476
REMARK  200  A    between atoms: _476  and  _477
REMARK  201  A    between atoms: _486  and  _488
REMARK  202  A    between atoms: _488  and  _489
REMARK  203  A    between atoms: _488  and  _491
REMARK  204  A    between atoms: _491  and  _492
REMARK  205  A    between atoms: _497  and  _499
REMARK  206  A    between atoms: _499  and  _500
REMARK  207  A    between atoms: _499  and  _502
REMARK  208  A    between atoms: _504  and  _506
REMARK  209  A    between atoms: _506  and  _507
REMARK  210  A    between atoms: _506  and  _509
REMARK  211  A    between atoms: _509  and  _510
REMARK  212  A    between atoms: _513  and  _515
REMARK  213  A    between atoms: _515  and  _516
REMARK  214  A    between atoms: _515  and  _518
REMARK  215  A    between atoms: _521  and  _523
REMARK  216  A    between atoms: _523  and  _524
REMARK  217  A    between atoms: _523  and  _526
REMARK  218  A    between atoms: _526  and  _527
REMARK  219  A    between atoms: _527  and  _528
REMARK  220  A    between atoms: _528  and  _529
REMARK  221  A    between atoms: _529  and  _530
REMARK  222  A    between atoms: _534  and  _536
REMARK  223  A    between atoms: _536  and  _537
REMARK  224  A    between atoms: _536  and  _539
REMARK  225  A    between atoms: _542  and  _544
REMARK  226  A    between atoms: _544  and  _545
REMARK  227  A    between atoms: _548  and  _550
REMARK  228  A    between atoms: _550  and  _551
REMARK  229  A    between atoms: _550  and  _553
REMARK  230  A    between atoms: _553  and  _554
REMARK  231  A    between atoms: _557  and  _559
REMARK  232  A    between atoms: _559  and  _560
REMARK  233  A    between atoms: _559  and  _562
REMARK  234  A    between atoms: _562  and  _563
REMARK  235  A    between atoms: _569  and  _571
REMARK  236  A    between atoms: _571  and  _572
REMARK  237  A    between atoms: _574  and  _576
REMARK  238  A    between atoms: _576  and  _577
REMARK  239  A    between atoms: _576  and  _579
REMARK  240  A    between atoms: _579  and  _580
REMARK  241  A    between atoms: _583  and  _585
REMARK  242  A    between atoms: _585  and  _586
REMARK  243  A    between atoms: _585  and  _588
REMARK  244  A    between atoms: _588  and  _589
REMARK                            x       y       z     vdW  Elec       q    Type
REMARK                         _______ _______ _______ _____ _____    ______ ____
ROOT
ATOM      1  CA  ILE A   1      25.880   4.280  19.126  0.00  0.00    +0.133 C 
ENDROOT
BRANCH   1   2
ATOM      2  N   ILE A   1      25.982   4.344  17.675  0.00  0.00    -0.239 NA
ATOM      3  H   ILE A   1      25.125   4.478  17.101  0.00  0.00    +0.142 HD
ENDBRANCH   1   2
BRANCH   1   4
ATOM      4  CB  ILE A   1      25.518   5.673  19.755  0.00  0.00    +0.023 C 
ATOM      5  CG2 ILE A   1      26.638   6.663  19.545  0.00  0.00    +0.002 C 
BRANCH   4   6
ATOM      6  CG1 ILE A   1      24.245   6.263  19.172  0.00  0.00    +0.002 C 
ATOM      7  CD1 ILE A   1      23.949   7.696  19.711  0.00  0.00    +0.000 C 
ENDBRANCH   4   6
ENDBRANCH   1   4
BRANCH   1   8
ATOM      8  C   ILE A   1      24.893   3.219  19.579  0.00  0.00    +0.224 C 
ATOM      9  O   ILE A   1      23.879   2.978  18.929  0.00  0.00    -0.287 OA
ENDBRANCH   1   8
TORSDOF 4
REMARK  Name = ../refined-set-2016/3gvu/3gvu_pocket.pdb
REMARK  244 active torsions:
REMARK  status: ('A' for Active; 'I' for Inactive)
REMARK    1  A    between atoms: _1  and  _3
REMARK    2  A    between atoms: _3  and  _4
REMARK    3  A    between atoms: _3  and  _6
REMARK    4  A    between atoms: _6  and  _7
REMARK    5  A    between atoms: _10  and  _12
REMARK    6  A    between atoms: _12  and  _13
REMARK    7  A    between atoms: _15  and  _17
REMARK    8  A    between atoms: _17  and  _18
REMARK    9  A    between atoms: _17  and  _20
REMARK   10  A    between atoms: _20  and  _21
REMARK   11  A    between atoms: _21  and  _22
REMARK   12  A    between atoms: _27  and  _29
REMARK   13  A    between atoms: _29  and  _30
REMARK   14  A    between atoms: _29  and  _32
REMARK   15  A    between atoms: _32  and  _33
REMARK   16  A    between atoms: _38  and  _39
REMARK   17  A    between atoms: _41  and  _43
REMARK   18  A    between atoms: _43  and  _44
REMARK   19  A    between atoms: _46  and  _48
REMARK   20  A    between atoms: _48  and  _49
REMARK   21  A    between atoms: _48  and  _51
REMARK   22  A    between atoms: _51  and  _52
REMARK   23  A    between atoms: _52  and  _53
REMARK   24  A    between atoms: _56  and  _58
REMARK   25  A    between atoms: _58  and  _59
REMARK   26  A    between atoms: _58  and  _61
REMARK   27  A    between atoms: _64  and  _66
REMARK   28  A    between atoms: _66  and  _67
REMARK   29  A    between atoms: _66  and  _69
REMARK   30  A    between atoms: _69  and  _70
REMARK   31  A    between atoms: _75  and  _76
REMARK   32  A    between atoms: _78  and  _80
REMARK   33  A    between atoms: _80  and  _81
REMARK   34  A    between atoms: _80  and  _83
REMARK   35  A    between atoms: _86  and  _88
REMARK   36  A    between atoms: _88  and  _89
REMARK   37  A    between atoms: _88  and  _91
REMARK   38  A    between atoms: _91  and  _92
REMARK   39  A    between atoms: _95  and  _97
REMARK   40  A    between atoms: _97  and  _98
REMARK   41  A    between atoms: _97  and  _100
REMARK   42  A    between atoms: _103  and  _105
REMARK   43  A    between atoms: _105  and  _106
REMARK   44  A    between atoms: _109  and  _111
REMARK   45  A    between atoms: _111  and  _112
REMARK   46  A    between atoms: _111  and  _114
REMARK   47  A    between atoms: _117  and  _119
REMARK   48  A    between atoms: _119  and  _120
REMARK   49  A    between atoms: _119  and  _122
REMARK   50  A    between atoms: _122  and  _123
REMARK   51  A    between atoms: _123  and  _124
REMARK   52  A    between atoms: _124  and  _125
REMARK   53  A    between atoms: _125  and  _126
REMARK   54  A    between atoms: _130  and  _132
REMARK   55  A    between atoms: _132  and  _133
REMARK   56  A    between atoms: _132  and  _135
REMARK   57  A    between atoms: _135  and  _136
REMARK   58  A    between atoms: _139  and  _141
REMARK   59  A    between atoms: _141  and  _142
REMARK   60  A    between atoms: _141  and  _144
REMARK   61  A    between atoms: _144  and  _145
REMARK   62  A    between atoms: _145  and  _146
REMARK   63  A    between atoms: _149  and  _151
REMARK   64  A    between atoms: _151  and  _152
REMARK   65  A    between atoms: _151  and  _154
REMARK   66  A    between atoms: _154  and  _155
REMARK   67  A    between atoms: _161  and  _163
REMARK   68  A    between atoms: _163  and  _164
REMARK   69  A    between atoms: _163  and  _166
REMARK   70  A    between atoms: _166  and  _167
REMARK   71  A    between atoms: _167  and  _168
REMARK   72  A    between atoms: _168  and  _169
REMARK   73  A    between atoms: _169  and  _170
REMARK   74  A    between atoms: _174  and  _176
REMARK   75  A    between atoms: _176  and  _177
REMARK   76  A    between atoms: _176  and  _179
REMARK   77  A    between atoms: _179  and  _180
REMARK   78  A    between atoms: _180  and  _181
REMARK   79  A    between atoms: _184  and  _186
REMARK   80  A    between atoms: _186  and  _187
REMARK   81  A    between atoms: _190  and  _192
REMARK   82  A    between atoms: _192  and  _193
REMARK   83  A    between atoms: _192  and  _195
REMARK   84  A    between atoms: _198  and  _200
REMARK   85  A    between atoms: _200  and  _201
REMARK   86  A    between atoms: _200  and  _203
REMARK   87  A    between atoms: _203  and  _204
REMARK   88  A    between atoms: _204  and  _205
REMARK   89  A    between atoms: _207  and  _209
REMARK   90  A    between atoms: _209  and  _210
REMARK   91  A    between atoms: _209  and  _212
REMARK   92  A    between atoms: _212  and  _213
REMARK   93  A    between atoms: _213  and  _214
REMARK   94  A    between atoms: _214  and  _215
REMARK   95  A    between atoms: _215  and  _216
REMARK   96  A    between atoms: _220  and  _222
REMARK   97  A    between atoms: _222  and  _223
REMARK   98  A    between atoms: _222  and  _225
REMARK   99  A    between atoms: _225  and  _226
REMARK  100  A    between atoms: _229  and  _231
REMARK  101  A    between atoms: _231  and  _232
REMARK  102  A    between atoms: _231  and  _234
REMARK  103  A    between atoms: _234  and  _235
REMARK  104  A    between atoms: _238  and  _240
REMARK  105  A    between atoms: _240  and  _241
REMARK  106  A    between atoms: _240  and  _243
REMARK  107  A    between atoms: _246  and  _248
REMARK  108  A    between atoms: _248  and  _249
REMARK  109  A    between atoms: _248  and  _251
REMARK  110  A    between atoms: _251  and  _252
REMARK  111  A    between atoms: _252  and  _253
REMARK  112  A    between atoms: _258  and  _260
REMARK  113  A    between atoms: _260  and  _261
REMARK  114  A    between atoms: _260  and  _263
REMARK  115  A    between atoms: _263  and  _264
REMARK  116  A    between atoms: _267  and  _269
REMARK  117  A    between atoms: _269  and  _270
REMARK  118  A    between atoms: _269  and  _272
REMARK  119  A    between atoms: _272  and  _273
REMARK  120  A    between atoms: _276  and  _278
REMARK  121  A    between atoms: _278  and  _279
REMARK  122  A    between atoms: _281  and  _283
REMARK  123  A    between atoms: _283  and  _284
REMARK  124  A    between atoms: _283  and  _286
REMARK  125  A    between atoms: _286  and  _287
REMARK  126  A    between atoms: _292  and  _293
REMARK  127  A    between atoms: _295  and  _297
REMARK  128  A    between atoms: _297  and  _298
REMARK  129  A    between atoms: _297  and  _300
REMARK  130  A    between atoms: _300  and  _301
REMARK  131  A    between atoms: _304  and  _306
REMARK  132  A    between atoms: _306  and  _307
REMARK  133  A    between atoms: _306  and  _309
REMARK  134  A    between atoms: _312  and  _314
REMARK  135  A    between atoms: _314  and  _315
REMARK  136  A    between atoms: _314  and  _317
REMARK  137  A    between atoms: _317  and  _318
REMARK  138  A    between atoms: _321  and  _323
REMARK  139  A    between atoms: _323  and  _324
REMARK  140  A    between atoms: _323  and  _326
REMARK  141  A    between atoms: _326  and  _327
REMARK  142  A    between atoms: _327  and  _328
REMARK  143  A    between atoms: _331  and  _333
REMARK  144  A    between atoms: _333  and  _334
REMARK  145  A    between atoms: _333  and  _336
REMARK  146  A    between atoms: _336  and  _337
REMARK  147  A    between atoms: _342  and  _343
REMARK  148  A    between atoms: _345  and  _347
REMARK  149  A    between atoms: _347  and  _348
REMARK  150  A    between atoms: _347  and  _350
REMARK  151  A    between atoms: _350  and  _351
REMARK  152  A    between atoms: _351  and  _352
REMARK  153  A    between atoms: _355  and  _356
REMARK  154  A    between atoms: _361  and  _363
REMARK  155  A    between atoms: _363  and  _364
REMARK  156  A    between atoms: _363  and  _366
REMARK  157  A    between atoms: _366  and  _367
REMARK  158  A    between atoms: _372  and  _373
REMARK  159  A    between atoms: _375  and  _377
REMARK  160  A    between atoms: _377  and  _378
REMARK  161  A    between atoms: _380  and  _382
REMARK  162  A    between atoms: _382  and  _383
REMARK  163  A    between atoms: _382  and  _385
REMARK  164  A    between atoms: _385  and  _386
REMARK  165  A    between atoms: _391  and  _393
REMARK  166  A    between atoms: _393  and  _394
REMARK  167  A    between atoms: _393  and  _396
REMARK  168  A    between atoms: _396  and  _397
REMARK  169  A    between atoms: _400  and  _402
REMARK  170  A    between atoms: _402  and  _403
REMARK  171  A    between atoms: _402  and  _405
REMARK  172  A    between atoms: _405  and  _406
REMARK  173  A    between atoms: _411  and  _413
REMARK  174  A    between atoms: _413  and  _414
REMARK  175  A    between atoms: _413  and  _416
REMARK  176  A    between atoms: _416  and  _417
REMARK  177  A    between atoms: _423  and  _425
REMARK  178  A    between atoms: _425  and  _426
REMARK  179  A    between atoms: _425  and  _428
REMARK  180  A    between atoms: _428  and  _429
REMARK  181  A    between atoms: _432  and  _434
REMARK  182  A    between atoms: _434  and  _435
REMARK  183  A    between atoms: _434  and  _437
REMARK  184  A    between atoms: _437  and  _438
REMARK  185  A    between atoms: _443  and  _445
REMARK  186  A    between atoms: _445  and  _446
REMARK  187  A    between atoms: _445  and  _448
REMARK  188  A    between atoms: _448  and  _449
REMARK  189  A    between atoms: _449  and  _450
REMARK  190  A    between atoms: _450  and  _451
REMARK  191  A    between atoms: _460  and  _462
REMARK  192  A    between atoms: _462  and  _463
REMARK  193  A    between atoms: _462  and  _465
REMARK  194  A    between atoms: _465  and  _466
REMARK  195  A    between atoms: _469  and  _471
REMARK  196  A    between atoms: _471  and  _472
REMARK  197  A    between atoms: _471  and  _474
REMARK  198  A    between atoms: _474  and  _475
REMARK  199  A    between atoms: _475  and  _476
REMARK  200  A    between atoms: _476  and  _477
REMARK  201  A    between atoms: _486  and  _488
REMARK  202  A    between atoms: _488  and  _489
REMARK  203  A    between atoms: _488  and  _491
REMARK  204  A    between atoms: _491  and  _492
REMARK  205  A    between atoms: _497  and  _499
REMARK  206  A    between atoms: _499  and  _500
REMARK  207  A    between atoms: _499  and  _502
REMARK  208  A    between atoms: _504  and  _506
REMARK  209  A    between atoms: _506  and  _507
REMARK  210  A    between atoms: _506  and  _509
REMARK  211  A    between atoms: _509  and  _510
REMARK  212  A    between atoms: _513  and  _515
REMARK  213  A    between atoms: _515  and  _516
REMARK  214  A    between atoms: _515  and  _518
REMARK  215  A    between atoms: _521  and  _523
REMARK  216  A    between atoms: _523  and  _524
REMARK  217  A    between atoms: _523  and  _526
REMARK  218  A    between atoms: _526  and  _527
REMARK  219  A    between atoms: _527  and  _528
REMARK  220  A    between atoms: _528  and  _529
REMARK  221  A    between atoms: _529  and  _530
REMARK  222  A    between atoms: _534  and  _536
REMARK  223  A    between atoms: _536  and  _537
REMARK  224  A    between atoms: _536  and  _539
REMARK  225  A    between atoms: _542  and  _544
REMARK  226  A    between atoms: _544  and  _545
REMARK  227  A    between atoms: _548  and  _550
REMARK  228  A    between atoms: _550  and  _551
REMARK  229  A    between atoms: _550  and  _553
REMARK  230  A    between atoms: _553  and  _554
REMARK  231  A    between atoms: _557  and  _559
REMARK  232  A    between atoms: _559  and  _560
REMARK  233  A    between atoms: _559  and  _562
REMARK  234  A    between atoms: _562  and  _563
REMARK  235  A    between atoms: _569  and  _571
REMARK  236  A    between atoms: _571  and  _572
REMARK  237  A    between atoms: _574  and  _576
REMARK  238  A    between atoms: _576  and  _577
REMARK  239  A    between atoms: _576  and  _579
REMARK  240  A    between atoms: _579  and  _580
REMARK  241  A    between atoms: _583  and  _585
REMARK  242  A    between atoms: _585  and  _586
REMARK  243  A    between atoms: _585  and  _588
REMARK  244  A    between atoms: _588  and  _589
REMARK                            x       y       z     vdW  Elec       q    Type
REMARK                         _______ _______ _______ _____ _____    ______ ____
ROOT
ATOM      1  CA  GLN A   3      17.509   1.607  20.328  0.00  0.00    +0.149 C 
ENDROOT
BRANCH   1   3
ATOM      2  C   VAL A   2      17.416   3.759  21.580  0.00  0.00    +0.241 C 
ATOM      3  N   GLN A   3      16.934   2.544  21.304  0.00  0.00    -0.297 N 
ATOM      4  H   GLN A   3      16.085   2.237  21.820  0.00  0.00    +0.150 HD
ATOM      5  O   VAL A   2      18.312   4.270  20.939  0.00  0.00    -0.273 OA
BRANCH   2   6
ATOM      6  CA  VAL A   2      16.835   4.512  22.794  0.00  0.00    +0.148 C 
BRANCH   6   9
ATOM      7  C   LEU A   1      18.959   4.320  23.983  0.00  0.00    +0.238 C 
ATOM      8  O   LEU A   1      19.037   3.108  23.783  0.00  0.00    -0.274 OA
ATOM      9  N   VAL A   2      17.946   5.066  23.554  0.00  0.00    -0.297 N 
ATOM     10  H   VAL A   2      17.947   6.083  23.769  0.00  0.00    +0.150 HD
BRANCH   7  11
ATOM     11  CA  LEU A   1      20.013   5.034  24.808  0.00  0.00    +0.145 C 
BRANCH  11  12
ATOM     12  N   LEU A   1      20.277   4.172  25.958  0.00  0.00    -0.238 NA
ATOM     13  H   LEU A   1      20.623   3.207  25.779  0.00  0.00    +0.142 HD
ENDBRANCH  11  12
BRANCH  11  14
ATOM     14  CB  LEU A   1      21.281   5.286  23.976  0.00  0.00    +0.026 C 
BRANCH  14  15
ATOM     15  CG  LEU A   1      22.289   6.250  24.619  0.00  0.00    +0.002 C 
ATOM     16  CD2 LEU A   1      21.798   7.689  24.540  0.00  0.00    +0.000 C 
ATOM     17  CD1 LEU A   1      23.660   6.145  24.008  0.00  0.00    +0.000 C 
ENDBRANCH  14  15
ENDBRANCH  11  14
ENDBRANCH   7  11
ENDBRANCH   6   9
BRANCH   6  18
ATOM     18  CB  VAL A   2      15.830   5.624  22.367  0.00  0.00    +0.027 C 
ATOM     19  CG2 VAL A   2      14.563   5.008  21.738  0.00  0.00    +0.002 C 
ATOM     20  CG1 VAL A   2      16.489   6.611  21.418  0.00  0.00    +0.002 C 
ENDBRANCH   6  18
ENDBRANCH   2   6
ENDBRANCH   1   3
BRANCH   1  21
ATOM     21  C   GLN A   3      16.988   1.871  18.909  0.00  0.00    +0.241 C 
ATOM     22  O   GLN A   3      15.786   1.735  18.709  0.00  0.00    -0.273 OA
ATOM     23  N   LEU A   4      17.862   2.211  17.974  0.00  0.00    -0.297 N 
ATOM     24  H   LEU A   4      18.814   2.501  18.276  0.00  0.00    +0.150 HD
BRANCH  23  25
ATOM     25  CA  LEU A   4      17.572   2.203  16.560  0.00  0.00    +0.149 C 
BRANCH  25  26
ATOM     26  C   LEU A   4      17.208   0.773  16.142  0.00  0.00    +0.241 C 
ATOM     27  O   LEU A   4      17.879  -0.185  16.515  0.00  0.00    -0.273 OA
ATOM     28  N   LEU A   5      16.153   0.644  15.365  0.00  0.00    -0.297 N 
ATOM     29  H   LEU A   5      15.583   1.484  15.137  0.00  0.00    +0.150 HD
BRANCH  28  30
ATOM     30  CA  LEU A   5      15.769  -0.642  14.821  0.00  0.00    +0.149 C 
BRANCH  30  31
ATOM     31  C   LEU A   5      15.985  -0.719  13.306  0.00  0.00    +0.241 C 
ATOM     32  O   LEU A   5      16.292  -1.788  12.775  0.00  0.00    -0.273 OA
ATOM     33  N   GLY A   6      15.806   0.404  12.617  0.00  0.00    -0.296 N 
ATOM     34  H   GLY A   6      15.419   1.240  13.100  0.00  0.00    +0.150 HD
BRANCH  33  35
ATOM     35  CA  GLY A   6      16.140   0.492  11.198  0.00  0.00    +0.163 C 
BRANCH  35  36
ATOM     36  C   GLY A   6      15.841   1.854  10.634  0.00  0.00    +0.229 C 
ATOM     37  O   GLY A   6      15.299   2.728  11.335  0.00  0.00    -0.286 OA
ENDBRANCH  35  36
ENDBRANCH  33  35
ENDBRANCH  30  31
BRANCH  30  38
ATOM     38  CB  LEU A   5      14.313  -0.922  15.181  0.00  0.00    +0.029 C 
BRANCH  38  39
ATOM     39  CG  LEU A   5      14.068  -1.132  16.680  0.00  0.00    +0.002 C 
ATOM     40  CD2 LEU A   5      14.812  -2.385  17.157  0.00  0.00    +0.000 C 
ATOM     41  CD1 LEU A   5      12.561  -1.234  16.981  0.00  0.00    +0.000 C 
ENDBRANCH  38  39
ENDBRANCH  30  38
ENDBRANCH  28  30
ENDBRANCH  25  26
BRANCH  25  42
ATOM     42  CB  LEU A   4      18.821   2.626  15.788  0.00  0.00    +0.029 C 
BRANCH  42  43
ATOM     43  CG  LEU A   4      18.683   2.788  14.271  0.00  0.00    +0.002 C 
ATOM     44  CD2 LEU A   4      17.678   3.907  13.881  0.00  0.00    +0.000 C 
ATOM     45  CD1 LEU A   4      20.036   3.017  13.614  0.00  0.00    +0.000 C 
ENDBRANCH  42  43
ENDBRANCH  25  42
ENDBRANCH  23  25
ENDBRANCH   1  21
BRANCH   1  46
ATOM     46  CB  GLN A   3      17.106   0.164  20.760  0.00  0.00    +0.039 C 
BRANCH  46  47
ATOM     47  CG  GLN A   3      17.589  -1.008  19.855  0.00  0.00    +0.087 C 
BRANCH  47  48
ATOM     48  CD  GLN A   3      17.051  -2.402  20.271  0.00  0.00    +0.219 C 
ATOM     49  OE1 GLN A   3      16.075  -2.522  21.011  0.00  0.00    -0.275 OA
ATOM     50  NE2 GLN A   3      17.675  -3.451  19.745  0.00  0.00    -0.329 N 
ATOM     51 HE21 GLN A   3      17.341  -4.413  19.955  0.00  0.00    +0.145 HD
ATOM     52 HE22 GLN A   3      18.497  -3.309  19.124  0.00  0.00    +0.145 HD
ENDBRANCH  47  48
ENDBRANCH  46  47
ENDBRANCH   1  46
TORSDOF 22
REMARK  Name = ../refined-set-2016/3gvu/3gvu_pocket.pdb
REMARK  244 active torsions:
REMARK  status: ('A' for Active; 'I' for Inactive)
REMARK    1  A    between atoms: _1  and  _3
REMARK    2  A    between atoms: _3  and  _4
REMARK    3  A    between atoms: _3  and  _6
REMARK    4  A    between atoms: _6  and  _7
REMARK    5  A    between atoms: _10  and  _12
REMARK    6  A    between atoms: _12  and  _13
REMARK    7  A    between atoms: _15  and  _17
REMARK    8  A    between atoms: _17  and  _18
REMARK    9  A    between atoms: _17  and  _20
REMARK   10  A    between atoms: _20  and  _21
REMARK   11  A    between atoms: _21  and  _22
REMARK   12  A    between atoms: _27  and  _29
REMARK   13  A    between atoms: _29  and  _30
REMARK   14  A    between atoms: _29  and  _32
REMARK   15  A    between atoms: _32  and  _33
REMARK   16  A    between atoms: _38  and  _39
REMARK   17  A    between atoms: _41  and  _43
REMARK   18  A    between atoms: _43  and  _44
REMARK   19  A    between atoms: _46  and  _48
REMARK   20  A    between atoms: _48  and  _49
REMARK   21  A    between atoms: _48  and  _51
REMARK   22  A    between atoms: _51  and  _52
REMARK   23  A    between atoms: _52  and  _53
REMARK   24  A    between atoms: _56  and  _58
REMARK   25  A    between atoms: _58  and  _59
REMARK   26  A    between atoms: _58  and  _61
REMARK   27  A    between atoms: _64  and  _66
REMARK   28  A    between atoms: _66  and  _67
REMARK   29  A    between atoms: _66  and  _69
REMARK   30  A    between atoms: _69  and  _70
REMARK   31  A    between atoms: _75  and  _76
REMARK   32  A    between atoms: _78  and  _80
REMARK   33  A    between atoms: _80  and  _81
REMARK   34  A    between atoms: _80  and  _83
REMARK   35  A    between atoms: _86  and  _88
REMARK   36  A    between atoms: _88  and  _89
REMARK   37  A    between atoms: _88  and  _91
REMARK   38  A    between atoms: _91  and  _92
REMARK   39  A    between atoms: _95  and  _97
REMARK   40  A    between atoms: _97  and  _98
REMARK   41  A    between atoms: _97  and  _100
REMARK   42  A    between atoms: _103  and  _105
REMARK   43  A    between atoms: _105  and  _106
REMARK   44  A    between atoms: _109  and  _111
REMARK   45  A    between atoms: _111  and  _112
REMARK   46  A    between atoms: _111  and  _114
REMARK   47  A    between atoms: _117  and  _119
REMARK   48  A    between atoms: _119  and  _120
REMARK   49  A    between atoms: _119  and  _122
REMARK   50  A    between atoms: _122  and  _123
REMARK   51  A    between atoms: _123  and  _124
REMARK   52  A    between atoms: _124  and  _125
REMARK   53  A    between atoms: _125  and  _126
REMARK   54  A    between atoms: _130  and  _132
REMARK   55  A    between atoms: _132  and  _133
REMARK   56  A    between atoms: _132  and  _135
REMARK   57  A    between atoms: _135  and  _136
REMARK   58  A    between atoms: _139  and  _141
REMARK   59  A    between atoms: _141  and  _142
REMARK   60  A    between atoms: _141  and  _144
REMARK   61  A    between atoms: _144  and  _145
REMARK   62  A    between atoms: _145  and  _146
REMARK   63  A    between atoms: _149  and  _151
REMARK   64  A    between atoms: _151  and  _152
REMARK   65  A    between atoms: _151  and  _154
REMARK   66  A    between atoms: _154  and  _155
REMARK   67  A    between atoms: _161  and  _163
REMARK   68  A    between atoms: _163  and  _164
REMARK   69  A    between atoms: _163  and  _166
REMARK   70  A    between atoms: _166  and  _167
REMARK   71  A    between atoms: _167  and  _168
REMARK   72  A    between atoms: _168  and  _169
REMARK   73  A    between atoms: _169  and  _170
REMARK   74  A    between atoms: _174  and  _176
REMARK   75  A    between atoms: _176  and  _177
REMARK   76  A    between atoms: _176  and  _179
REMARK   77  A    between atoms: _179  and  _180
REMARK   78  A    between atoms: _180  and  _181
REMARK   79  A    between atoms: _184  and  _186
REMARK   80  A    between atoms: _186  and  _187
REMARK   81  A    between atoms: _190  and  _192
REMARK   82  A    between atoms: _192  and  _193
REMARK   83  A    between atoms: _192  and  _195
REMARK   84  A    between atoms: _198  and  _200
REMARK   85  A    between atoms: _200  and  _201
REMARK   86  A    between atoms: _200  and  _203
REMARK   87  A    between atoms: _203  and  _204
REMARK   88  A    between atoms: _204  and  _205
REMARK   89  A    between atoms: _207  and  _209
REMARK   90  A    between atoms: _209  and  _210
REMARK   91  A    between atoms: _209  and  _212
REMARK   92  A    between atoms: _212  and  _213
REMARK   93  A    between atoms: _213  and  _214
REMARK   94  A    between atoms: _214  and  _215
REMARK   95  A    between atoms: _215  and  _216
REMARK   96  A    between atoms: _220  and  _222
REMARK   97  A    between atoms: _222  and  _223
REMARK   98  A    between atoms: _222  and  _225
REMARK   99  A    between atoms: _225  and  _226
REMARK  100  A    between atoms: _229  and  _231
REMARK  101  A    between atoms: _231  and  _232
REMARK  102  A    between atoms: _231  and  _234
REMARK  103  A    between atoms: _234  and  _235
REMARK  104  A    between atoms: _238  and  _240
REMARK  105  A    between atoms: _240  and  _241
REMARK  106  A    between atoms: _240  and  _243
REMARK  107  A    between atoms: _246  and  _248
REMARK  108  A    between atoms: _248  and  _249
REMARK  109  A    between atoms: _248  and  _251
REMARK  110  A    between atoms: _251  and  _252
REMARK  111  A    between atoms: _252  and  _253
REMARK  112  A    between atoms: _258  and  _260
REMARK  113  A    between atoms: _260  and  _261
REMARK  114  A    between atoms: _260  and  _263
REMARK  115  A    between atoms: _263  and  _264
REMARK  116  A    between atoms: _267  and  _269
REMARK  117  A    between atoms: _269  and  _270
REMARK  118  A    between atoms: _269  and  _272
REMARK  119  A    between atoms: _272  and  _273
REMARK  120  A    between atoms: _276  and  _278
REMARK  121  A    between atoms: _278  and  _279
REMARK  122  A    between atoms: _281  and  _283
REMARK  123  A    between atoms: _283  and  _284
REMARK  124  A    between atoms: _283  and  _286
REMARK  125  A    between atoms: _286  and  _287
REMARK  126  A    between atoms: _292  and  _293
REMARK  127  A    between atoms: _295  and  _297
REMARK  128  A    between atoms: _297  and  _298
REMARK  129  A    between atoms: _297  and  _300
REMARK  130  A    between atoms: _300  and  _301
REMARK  131  A    between atoms: _304  and  _306
REMARK  132  A    between atoms: _306  and  _307
REMARK  133  A    between atoms: _306  and  _309
REMARK  134  A    between atoms: _312  and  _314
REMARK  135  A    between atoms: _314  and  _315
REMARK  136  A    between atoms: _314  and  _317
REMARK  137  A    between atoms: _317  and  _318
REMARK  138  A    between atoms: _321  and  _323
REMARK  139  A    between atoms: _323  and  _324
REMARK  140  A    between atoms: _323  and  _326
REMARK  141  A    between atoms: _326  and  _327
REMARK  142  A    between atoms: _327  and  _328
REMARK  143  A    between atoms: _331  and  _333
REMARK  144  A    between atoms: _333  and  _334
REMARK  145  A    between atoms: _333  and  _336
REMARK  146  A    between atoms: _336  and  _337
REMARK  147  A    between atoms: _342  and  _343
REMARK  148  A    between atoms: _345  and  _347
REMARK  149  A    between atoms: _347  and  _348
REMARK  150  A    between atoms: _347  and  _350
REMARK  151  A    between atoms: _350  and  _351
REMARK  152  A    between atoms: _351  and  _352
REMARK  153  A    between atoms: _355  and  _356
REMARK  154  A    between atoms: _361  and  _363
REMARK  155  A    between atoms: _363  and  _364
REMARK  156  A    between atoms: _363  and  _366
REMARK  157  A    between atoms: _366  and  _367
REMARK  158  A    between atoms: _372  and  _373
REMARK  159  A    between atoms: _375  and  _377
REMARK  160  A    between atoms: _377  and  _378
REMARK  161  A    between atoms: _380  and  _382
REMARK  162  A    between atoms: _382  and  _383
REMARK  163  A    between atoms: _382  and  _385
REMARK  164  A    between atoms: _385  and  _386
REMARK  165  A    between atoms: _391  and  _393
REMARK  166  A    between atoms: _393  and  _394
REMARK  167  A    between atoms: _393  and  _396
REMARK  168  A    between atoms: _396  and  _397
REMARK  169  A    between atoms: _400  and  _402
REMARK  170  A    between atoms: _402  and  _403
REMARK  171  A    between atoms: _402  and  _405
REMARK  172  A    between atoms: _405  and  _406
REMARK  173  A    between atoms: _411  and  _413
REMARK  174  A    between atoms: _413  and  _414
REMARK  175  A    between atoms: _413  and  _416
REMARK  176  A    between atoms: _416  and  _417
REMARK  177  A    between atoms: _423  and  _425
REMARK  178  A    between atoms: _425  and  _426
REMARK  179  A    between atoms: _425  and  _428
REMARK  180  A    between atoms: _428  and  _429
REMARK  181  A    between atoms: _432  and  _434
REMARK  182  A    between atoms: _434  and  _435
REMARK  183  A    between atoms: _434  and  _437
REMARK  184  A    between atoms: _437  and  _438
REMARK  185  A    between atoms: _443  and  _445
REMARK  186  A    between atoms: _445  and  _446
REMARK  187  A    between atoms: _445  and  _448
REMARK  188  A    between atoms: _448  and  _449
REMARK  189  A    between atoms: _449  and  _450
REMARK  190  A    between atoms: _450  and  _451
REMARK  191  A    between atoms: _460  and  _462
REMARK  192  A    between atoms: _462  and  _463
REMARK  193  A    between atoms: _462  and  _465
REMARK  194  A    between atoms: _465  and  _466
REMARK  195  A    between atoms: _469  and  _471
REMARK  196  A    between atoms: _471  and  _472
REMARK  197  A    between atoms: _471  and  _474
REMARK  198  A    between atoms: _474  and  _475
REMARK  199  A    between atoms: _475  and  _476
REMARK  200  A    between atoms: _476  and  _477
REMARK  201  A    between atoms: _486  and  _488
REMARK  202  A    between atoms: _488  and  _489
REMARK  203  A    between atoms: _488  and  _491
REMARK  204  A    between atoms: _491  and  _492
REMARK  205  A    between atoms: _497  and  _499
REMARK  206  A    between atoms: _499  and  _500
REMARK  207  A    between atoms: _499  and  _502
REMARK  208  A    between atoms: _504  and  _506
REMARK  209  A    between atoms: _506  and  _507
REMARK  210  A    between atoms: _506  and  _509
REMARK  211  A    between atoms: _509  and  _510
REMARK  212  A    between atoms: _513  and  _515
REMARK  213  A    between atoms: _515  and  _516
REMARK  214  A    between atoms: _515  and  _518
REMARK  215  A    between atoms: _521  and  _523
REMARK  216  A    between atoms: _523  and  _524
REMARK  217  A    between atoms: _523  and  _526
REMARK  218  A    between atoms: _526  and  _527
REMARK  219  A    between atoms: _527  and  _528
REMARK  220  A    between atoms: _528  and  _529
REMARK  221  A    between atoms: _529  and  _530
REMARK  222  A    between atoms: _534  and  _536
REMARK  223  A    between atoms: _536  and  _537
REMARK  224  A    between atoms: _536  and  _539
REMARK  225  A    between atoms: _542  and  _544
REMARK  226  A    between atoms: _544  and  _545
REMARK  227  A    between atoms: _548  and  _550
REMARK  228  A    between atoms: _550  and  _551
REMARK  229  A    between atoms: _550  and  _553
REMARK  230  A    between atoms: _553  and  _554
REMARK  231  A    between atoms: _557  and  _559
REMARK  232  A    between atoms: _559  and  _560
REMARK  233  A    between atoms: _559  and  _562
REMARK  234  A    between atoms: _562  and  _563
REMARK  235  A    between atoms: _569  and  _571
REMARK  236  A    between atoms: _571  and  _572
REMARK  237  A    between atoms: _574  and  _576
REMARK  238  A    between atoms: _576  and  _577
REMARK  239  A    between atoms: _576  and  _579
REMARK  240  A    between atoms: _579  and  _580
REMARK  241  A    between atoms: _583  and  _585
REMARK  242  A    between atoms: _585  and  _586
REMARK  243  A    between atoms: _585  and  _588
REMARK  244  A    between atoms: _588  and  _589
REMARK                            x       y       z     vdW  Elec       q    Type
REMARK                         _______ _______ _______ _____ _____    ______ ____
ROOT
ATOM      1  CA  TYR A   6       8.521   2.124  21.482  0.00  0.00    +0.153 C 
ENDROOT
BRANCH   1   3
ATOM      2  C   GLU A   5      10.727   1.852  20.414  0.00  0.00    +0.241 C 
ATOM      3  N   TYR A   6       9.583   1.346  20.839  0.00  0.00    -0.297 N 
ATOM      4  H   TYR A   6       9.426   0.326  20.708  0.00  0.00    +0.150 HD
ATOM      5  O   GLU A   5      10.990   3.070  20.423  0.00  0.00    -0.273 OA
BRANCH   2   6
ATOM      6  CA  GLU A   5      11.744   0.818  19.917  0.00  0.00    +0.149 C 
BRANCH   6   8
ATOM      7  C   THR A   4      12.190   2.091  17.916  0.00  0.00    +0.243 C 
ATOM      8  N   GLU A   5      12.659   1.459  18.982  0.00  0.00    -0.297 N 
ATOM      9  H   GLU A   5      13.684   1.420  19.152  0.00  0.00    +0.150 HD
ATOM     10  O   THR A   4      10.998   2.031  17.561  0.00  0.00    -0.273 OA
BRANCH   7  11
ATOM     11  CA  THR A   4      13.196   2.927  17.167  0.00  0.00    +0.176 C 
BRANCH  11  13
ATOM     12  C   VAL A   3      13.247   3.118  14.744  0.00  0.00    +0.241 C 
ATOM     13  N   THR A   4      12.633   3.379  15.894  0.00  0.00    -0.295 N 
ATOM     14  H   THR A   4      11.740   3.912  15.889  0.00  0.00    +0.150 HD
ATOM     15  O   VAL A   3      14.379   2.601  14.688  0.00  0.00    -0.273 OA
BRANCH  12  16
ATOM     16  CA  VAL A   3      12.492   3.509  13.464  0.00  0.00    +0.149 C 
BRANCH  16  19
ATOM     17  C   ILE A   2      13.130   5.642  12.487  0.00  0.00    +0.241 C 
ATOM     18  O   ILE A   2      12.223   6.246  13.065  0.00  0.00    -0.273 OA
ATOM     19  N   VAL A   3      13.342   4.351  12.642  0.00  0.00    -0.297 N 
ATOM     20  H   VAL A   3      14.152   3.917  12.155  0.00  0.00    +0.150 HD
BRANCH  17  21
ATOM     21  CA  ILE A   2      14.042   6.361  11.505  0.00  0.00    +0.148 C 
BRANCH  21  23
ATOM     22  C   TYR A   1      13.277   6.717   9.222  0.00  0.00    +0.239 C 
ATOM     23  N   ILE A   2      13.151   6.964  10.510  0.00  0.00    -0.297 N 
ATOM     24  H   ILE A   2      12.397   7.605  10.830  0.00  0.00    +0.150 HD
ATOM     25  O   TYR A   1      14.301   6.250   8.706  0.00  0.00    -0.274 OA
BRANCH  22  26
ATOM     26  CA  TYR A   1      12.045   6.955   8.405  0.00  0.00    +0.149 C 
BRANCH  26  27
ATOM     27  N   TYR A   1      12.416   7.429   7.096  0.00  0.00    -0.238 NA
ATOM     28  H   TYR A   1      13.059   6.849   6.520  0.00  0.00    +0.142 HD
ENDBRANCH  26  27
BRANCH  26  29
ATOM     29  CB  TYR A   1      11.380   5.581   8.331  0.00  0.00    +0.053 C 
BRANCH  29  30
ATOM     30  CG  TYR A   1       9.950   5.495   7.858  0.00  0.00    -0.020 A 
ATOM     31  CD2 TYR A   1       9.309   4.257   7.843  0.00  0.00    -0.001 A 
ATOM     32  CE2 TYR A   1       7.991   4.125   7.409  0.00  0.00    +0.036 A 
ATOM     33  CZ  TYR A   1       7.301   5.228   6.964  0.00  0.00    +0.134 A 
ATOM     34  CE1 TYR A   1       7.900   6.467   6.955  0.00  0.00    +0.036 A 
ATOM     35  CD1 TYR A   1       9.243   6.595   7.402  0.00  0.00    -0.001 A 
BRANCH  33  36
ATOM     36  OH  TYR A   1       6.006   5.056   6.533  0.00  0.00    -0.506 OA
ATOM     37  HH  TYR A   1       5.637   5.928   6.244  0.00  0.00    +0.292 HD
ENDBRANCH  33  36
ENDBRANCH  29  30
ENDBRANCH  26  29
ENDBRANCH  22  26
ENDBRANCH  21  23
BRANCH  21  38
ATOM     38  CB  ILE A   2      14.879   7.408  12.234  0.00  0.00    +0.027 C 
ATOM     39  CG2 ILE A   2      15.704   6.727  13.351  0.00  0.00    +0.002 C 
BRANCH  38  40
ATOM     40  CG1 ILE A   2      15.803   8.109  11.255  0.00  0.00    +0.002 C 
ATOM     41  CD1 ILE A   2      16.493   9.415  11.802  0.00  0.00    +0.000 C 
ENDBRANCH  38  40
ENDBRANCH  21  38
ENDBRANCH  17  21
ENDBRANCH  16  19
BRANCH  16  42
ATOM     42  CB  VAL A   3      12.065   2.261  12.667  0.00  0.00    +0.027 C 
ATOM     43  CG2 VAL A   3      11.124   1.367  13.498  0.00  0.00    +0.002 C 
ATOM     44  CG1 VAL A   3      11.405   2.657  11.283  0.00  0.00    +0.002 C 
ENDBRANCH  16  42
ENDBRANCH  12  16
ENDBRANCH  11  13
BRANCH  11  45
ATOM     45  CB  THR A   4      13.614   4.101  18.110  0.00  0.00    +0.137 C 
ATOM     46  CG2 THR A   4      14.530   5.129  17.400  0.00  0.00    +0.034 C 
BRANCH  45  47
ATOM     47  OG1 THR A   4      12.447   4.749  18.620  0.00  0.00    -0.382 OA
ATOM     48  HG1 THR A   4      11.904   4.096  19.129  0.00  0.00    +0.210 HD
ENDBRANCH  45  47
ENDBRANCH  11  45
ENDBRANCH   7  11
ENDBRANCH   6   8
BRANCH   6  49
ATOM     49  CB  GLU A   5      12.509   0.215  21.108  0.00  0.00    +0.041 C 
BRANCH  49  50
ATOM     50  CG  GLU A   5      13.232   1.249  21.956  0.00  0.00    +0.116 C 
BRANCH  50  51
ATOM     51  CD  GLU A   5      14.064   0.628  23.071  0.00  0.00    +0.365 C 
ATOM     52  OE2 GLU A   5      13.573  -0.349  23.672  0.00  0.00    -0.246 OA
ATOM     53  OE1 GLU A   5      15.189   1.136  23.355  0.00  0.00    -0.246 OA
ENDBRANCH  50  51
ENDBRANCH  49  50
ENDBRANCH   6  49
ENDBRANCH   2   6
ENDBRANCH   1   3
BRANCH   1  54
ATOM     54  C   TYR A   6       8.661   1.935  22.994  0.00  0.00    +0.241 C 
ATOM     55  N   MET A   7       8.569   3.022  23.755  0.00  0.00    -0.297 N 
ATOM     56  H   MET A   7       8.332   3.931  23.308  0.00  0.00    +0.150 HD
ATOM     57  O   TYR A   6       8.848   0.825  23.460  0.00  0.00    -0.273 OA
BRANCH  55  58
ATOM     58  CA  MET A   7       8.791   2.980  25.204  0.00  0.00    +0.150 C 
BRANCH  58  59
ATOM     59  C   MET A   7       7.455   3.186  25.900  0.00  0.00    +0.244 C 
ATOM     60  N   PRO A   8       6.930   2.118  26.540  0.00  0.00    -0.272 N 
ATOM     61  CA  PRO A   8       5.502   2.121  26.888  0.00  0.00    +0.152 C 
ATOM     62  CB  PRO A   8       5.228   0.681  27.406  0.00  0.00    +0.031 C 
ATOM     63  CG  PRO A   8       6.539  -0.022  27.440  0.00  0.00    +0.024 C 
ATOM     64  CD  PRO A   8       7.519   0.765  26.600  0.00  0.00    +0.094 C 
ATOM     65  O   MET A   7       6.882   4.287  25.845  0.00  0.00    -0.273 OA
BRANCH  61  66
ATOM     66  C   PRO A   8       5.037   3.149  27.883  0.00  0.00    +0.241 C 
ATOM     67  N   TYR A   9       5.947   3.683  28.694  0.00  0.00    -0.297 N 
ATOM     68  H   TYR A   9       6.934   3.363  28.623  0.00  0.00    +0.150 HD
ATOM     69  O   PRO A   8       3.835   3.444  27.914  0.00  0.00    -0.273 OA
BRANCH  67  70
ATOM     70  CA  TYR A   9       5.604   4.705  29.681  0.00  0.00    +0.153 C 
BRANCH  70  71
ATOM     71  C   TYR A   9       5.922   6.149  29.217  0.00  0.00    +0.241 C 
ATOM     72  O   TYR A   9       5.845   7.100  29.992  0.00  0.00    -0.273 OA
ATOM     73  N   GLY A  10       6.243   6.326  27.937  0.00  0.00    -0.295 N 
ATOM     74  H   GLY A  10       6.398   5.500  27.324  0.00  0.00    +0.150 HD
BRANCH  73  75
ATOM     75  CA  GLY A  10       6.378   7.672  27.389  0.00  0.00    +0.176 C 
BRANCH  75  76
ATOM     76  C   GLY A  10       7.550   8.416  28.007  0.00  0.00    +0.243 C 
ATOM     77  O   GLY A  10       8.469   7.802  28.552  0.00  0.00    -0.273 OA
ATOM     78  N   ASN A  11       7.504   9.741  27.959  0.00  0.00    -0.298 N 
ATOM     79  H   ASN A  11       6.650  10.216  27.602  0.00  0.00    +0.150 HD
BRANCH  78  80
ATOM     80  CA  ASN A  11       8.654  10.544  28.408  0.00  0.00    +0.146 C 
BRANCH  80  81
ATOM     81  C   ASN A  11       8.745  10.702  29.922  0.00  0.00    +0.227 C 
ATOM     82  O   ASN A  11       7.733  10.711  30.633  0.00  0.00    -0.286 OA
ENDBRANCH  80  81
BRANCH  80  83
ATOM     83  CB  ASN A  11       8.676  11.887  27.675  0.00  0.00    +0.112 C 
BRANCH  83  84
ATOM     84  CG  ASN A  11       7.714  12.872  28.234  0.00  0.00    +0.222 C 
ATOM     85  OD1 ASN A  11       7.991  13.477  29.248  0.00  0.00    -0.275 OA
ATOM     86  ND2 ASN A  11       6.595  13.061  27.572  0.00  0.00    -0.329 N 
ATOM     87 HD21 ASN A  11       5.900  13.755  27.913  0.00  0.00    +0.145 HD
ATOM     88 HD22 ASN A  11       6.404  12.516  26.707  0.00  0.00    +0.145 HD
ENDBRANCH  83  84
ENDBRANCH  80  83
ENDBRANCH  78  80
ENDBRANCH  75  76
ENDBRANCH  73  75
ENDBRANCH  70  71
BRANCH  70  89
ATOM     89  CB  TYR A   9       6.242   4.342  31.035  0.00  0.00    +0.055 C 
BRANCH  89  90
ATOM     90  CG  TYR A   9       5.540   3.165  31.701  0.00  0.00    -0.020 A 
ATOM     91  CD2 TYR A   9       4.500   3.366  32.608  0.00  0.00    -0.001 A 
ATOM     92  CE2 TYR A   9       3.847   2.289  33.217  0.00  0.00    +0.036 A 
ATOM     93  CZ  TYR A   9       4.220   0.992  32.889  0.00  0.00    +0.134 A 
ATOM     94  CE1 TYR A   9       5.240   0.767  32.002  0.00  0.00    +0.036 A 
ATOM     95  CD1 TYR A   9       5.888   1.854  31.394  0.00  0.00    -0.001 A 
BRANCH  93  96
ATOM     96  OH  TYR A   9       3.578  -0.061  33.469  0.00  0.00    -0.506 OA
ATOM     97  HH  TYR A   9       3.962  -0.908  33.129  0.00  0.00    +0.292 HD
ENDBRANCH  93  96
ENDBRANCH  89  90
ENDBRANCH  70  89
ENDBRANCH  67  70
ENDBRANCH  61  66
ENDBRANCH  58  59
BRANCH  58  98
ATOM     98  CB  MET A   7       9.816   4.029  25.584  0.00  0.00    +0.041 C 
BRANCH  98  99
ATOM     99  CG  MET A   7      11.199   3.779  24.895  0.00  0.00    +0.060 C 
BRANCH  99 100
ATOM    100  SD  MET A   7      12.034   2.358  25.611  0.00  0.00    -0.139 S 
ATOM    101  CE  MET A   7      12.432   2.999  27.260  0.00  0.00    +0.069 C 
ENDBRANCH  99 100
ENDBRANCH  98  99
ENDBRANCH  58  98
ENDBRANCH  55  58
ENDBRANCH   1  54
BRANCH   1 102
ATOM    102  CB  TYR A   6       7.145   1.626  20.981  0.00  0.00    +0.055 C 
BRANCH 102 103
ATOM    103  CG  TYR A   6       5.942   2.107  21.767  0.00  0.00    -0.020 A 
ATOM    104  CD2 TYR A   6       5.353   1.302  22.742  0.00  0.00    -0.001 A 
ATOM    105  CE2 TYR A   6       4.281   1.746  23.455  0.00  0.00    +0.036 A 
ATOM    106  CZ  TYR A   6       3.781   3.009  23.208  0.00  0.00    +0.134 A 
ATOM    107  CE1 TYR A   6       4.356   3.808  22.245  0.00  0.00    +0.036 A 
ATOM    108  CD1 TYR A   6       5.398   3.358  21.537  0.00  0.00    -0.001 A 
BRANCH 106 109
ATOM    109  OH  TYR A   6       2.681   3.472  23.910  0.00  0.00    -0.506 OA
ATOM    110  HH  TYR A   6       2.889   3.483  24.878  0.00  0.00    +0.292 HD
ENDBRANCH 106 109
ENDBRANCH 102 103
ENDBRANCH   1 102
TORSDOF 43
REMARK  Name = ../refined-set-2016/3gvu/3gvu_pocket.pdb
REMARK  244 active torsions:
REMARK  status: ('A' for Active; 'I' for Inactive)
REMARK    1  A    between atoms: _1  and  _3
REMARK    2  A    between atoms: _3  and  _4
REMARK    3  A    between atoms: _3  and  _6
REMARK    4  A    between atoms: _6  and  _7
REMARK    5  A    between atoms: _10  and  _12
REMARK    6  A    between atoms: _12  and  _13
REMARK    7  A    between atoms: _15  and  _17
REMARK    8  A    between atoms: _17  and  _18
REMARK    9  A    between atoms: _17  and  _20
REMARK   10  A    between atoms: _20  and  _21
REMARK   11  A    between atoms: _21  and  _22
REMARK   12  A    between atoms: _27  and  _29
REMARK   13  A    between atoms: _29  and  _30
REMARK   14  A    between atoms: _29  and  _32
REMARK   15  A    between atoms: _32  and  _33
REMARK   16  A    between atoms: _38  and  _39
REMARK   17  A    between atoms: _41  and  _43
REMARK   18  A    between atoms: _43  and  _44
REMARK   19  A    between atoms: _46  and  _48
REMARK   20  A    between atoms: _48  and  _49
REMARK   21  A    between atoms: _48  and  _51
REMARK   22  A    between atoms: _51  and  _52
REMARK   23  A    between atoms: _52  and  _53
REMARK   24  A    between atoms: _56  and  _58
REMARK   25  A    between atoms: _58  and  _59
REMARK   26  A    between atoms: _58  and  _61
REMARK   27  A    between atoms: _64  and  _66
REMARK   28  A    between atoms: _66  and  _67
REMARK   29  A    between atoms: _66  and  _69
REMARK   30  A    between atoms: _69  and  _70
REMARK   31  A    between atoms: _75  and  _76
REMARK   32  A    between atoms: _78  and  _80
REMARK   33  A    between atoms: _80  and  _81
REMARK   34  A    between atoms: _80  and  _83
REMARK   35  A    between atoms: _86  and  _88
REMARK   36  A    between atoms: _88  and  _89
REMARK   37  A    between atoms: _88  and  _91
REMARK   38  A    between atoms: _91  and  _92
REMARK   39  A    between atoms: _95  and  _97
REMARK   40  A    between atoms: _97  and  _98
REMARK   41  A    between atoms: _97  and  _100
REMARK   42  A    between atoms: _103  and  _105
REMARK   43  A    between atoms: _105  and  _106
REMARK   44  A    between atoms: _109  and  _111
REMARK   45  A    between atoms: _111  and  _112
REMARK   46  A    between atoms: _111  and  _114
REMARK   47  A    between atoms: _117  and  _119
REMARK   48  A    between atoms: _119  and  _120
REMARK   49  A    between atoms: _119  and  _122
REMARK   50  A    between atoms: _122  and  _123
REMARK   51  A    between atoms: _123  and  _124
REMARK   52  A    between atoms: _124  and  _125
REMARK   53  A    between atoms: _125  and  _126
REMARK   54  A    between atoms: _130  and  _132
REMARK   55  A    between atoms: _132  and  _133
REMARK   56  A    between atoms: _132  and  _135
REMARK   57  A    between atoms: _135  and  _136
REMARK   58  A    between atoms: _139  and  _141
REMARK   59  A    between atoms: _141  and  _142
REMARK   60  A    between atoms: _141  and  _144
REMARK   61  A    between atoms: _144  and  _145
REMARK   62  A    between atoms: _145  and  _146
REMARK   63  A    between atoms: _149  and  _151
REMARK   64  A    between atoms: _151  and  _152
REMARK   65  A    between atoms: _151  and  _154
REMARK   66  A    between atoms: _154  and  _155
REMARK   67  A    between atoms: _161  and  _163
REMARK   68  A    between atoms: _163  and  _164
REMARK   69  A    between atoms: _163  and  _166
REMARK   70  A    between atoms: _166  and  _167
REMARK   71  A    between atoms: _167  and  _168
REMARK   72  A    between atoms: _168  and  _169
REMARK   73  A    between atoms: _169  and  _170
REMARK   74  A    between atoms: _174  and  _176
REMARK   75  A    between atoms: _176  and  _177
REMARK   76  A    between atoms: _176  and  _179
REMARK   77  A    between atoms: _179  and  _180
REMARK   78  A    between atoms: _180  and  _181
REMARK   79  A    between atoms: _184  and  _186
REMARK   80  A    between atoms: _186  and  _187
REMARK   81  A    between atoms: _190  and  _192
REMARK   82  A    between atoms: _192  and  _193
REMARK   83  A    between atoms: _192  and  _195
REMARK   84  A    between atoms: _198  and  _200
REMARK   85  A    between atoms: _200  and  _201
REMARK   86  A    between atoms: _200  and  _203
REMARK   87  A    between atoms: _203  and  _204
REMARK   88  A    between atoms: _204  and  _205
REMARK   89  A    between atoms: _207  and  _209
REMARK   90  A    between atoms: _209  and  _210
REMARK   91  A    between atoms: _209  and  _212
REMARK   92  A    between atoms: _212  and  _213
REMARK   93  A    between atoms: _213  and  _214
REMARK   94  A    between atoms: _214  and  _215
REMARK   95  A    between atoms: _215  and  _216
REMARK   96  A    between atoms: _220  and  _222
REMARK   97  A    between atoms: _222  and  _223
REMARK   98  A    between atoms: _222  and  _225
REMARK   99  A    between atoms: _225  and  _226
REMARK  100  A    between atoms: _229  and  _231
REMARK  101  A    between atoms: _231  and  _232
REMARK  102  A    between atoms: _231  and  _234
REMARK  103  A    between atoms: _234  and  _235
REMARK  104  A    between atoms: _238  and  _240
REMARK  105  A    between atoms: _240  and  _241
REMARK  106  A    between atoms: _240  and  _243
REMARK  107  A    between atoms: _246  and  _248
REMARK  108  A    between atoms: _248  and  _249
REMARK  109  A    between atoms: _248  and  _251
REMARK  110  A    between atoms: _251  and  _252
REMARK  111  A    between atoms: _252  and  _253
REMARK  112  A    between atoms: _258  and  _260
REMARK  113  A    between atoms: _260  and  _261
REMARK  114  A    between atoms: _260  and  _263
REMARK  115  A    between atoms: _263  and  _264
REMARK  116  A    between atoms: _267  and  _269
REMARK  117  A    between atoms: _269  and  _270
REMARK  118  A    between atoms: _269  and  _272
REMARK  119  A    between atoms: _272  and  _273
REMARK  120  A    between atoms: _276  and  _278
REMARK  121  A    between atoms: _278  and  _279
REMARK  122  A    between atoms: _281  and  _283
REMARK  123  A    between atoms: _283  and  _284
REMARK  124  A    between atoms: _283  and  _286
REMARK  125  A    between atoms: _286  and  _287
REMARK  126  A    between atoms: _292  and  _293
REMARK  127  A    between atoms: _295  and  _297
REMARK  128  A    between atoms: _297  and  _298
REMARK  129  A    between atoms: _297  and  _300
REMARK  130  A    between atoms: _300  and  _301
REMARK  131  A    between atoms: _304  and  _306
REMARK  132  A    between atoms: _306  and  _307
REMARK  133  A    between atoms: _306  and  _309
REMARK  134  A    between atoms: _312  and  _314
REMARK  135  A    between atoms: _314  and  _315
REMARK  136  A    between atoms: _314  and  _317
REMARK  137  A    between atoms: _317  and  _318
REMARK  138  A    between atoms: _321  and  _323
REMARK  139  A    between atoms: _323  and  _324
REMARK  140  A    between atoms: _323  and  _326
REMARK  141  A    between atoms: _326  and  _327
REMARK  142  A    between atoms: _327  and  _328
REMARK  143  A    between atoms: _331  and  _333
REMARK  144  A    between atoms: _333  and  _334
REMARK  145  A    between atoms: _333  and  _336
REMARK  146  A    between atoms: _336  and  _337
REMARK  147  A    between atoms: _342  and  _343
REMARK  148  A    between atoms: _345  and  _347
REMARK  149  A    between atoms: _347  and  _348
REMARK  150  A    between atoms: _347  and  _350
REMARK  151  A    between atoms: _350  and  _351
REMARK  152  A    between atoms: _351  and  _352
REMARK  153  A    between atoms: _355  and  _356
REMARK  154  A    between atoms: _361  and  _363
REMARK  155  A    between atoms: _363  and  _364
REMARK  156  A    between atoms: _363  and  _366
REMARK  157  A    between atoms: _366  and  _367
REMARK  158  A    between atoms: _372  and  _373
REMARK  159  A    between atoms: _375  and  _377
REMARK  160  A    between atoms: _377  and  _378
REMARK  161  A    between atoms: _380  and  _382
REMARK  162  A    between atoms: _382  and  _383
REMARK  163  A    between atoms: _382  and  _385
REMARK  164  A    between atoms: _385  and  _386
REMARK  165  A    between atoms: _391  and  _393
REMARK  166  A    between atoms: _393  and  _394
REMARK  167  A    between atoms: _393  and  _396
REMARK  168  A    between atoms: _396  and  _397
REMARK  169  A    between atoms: _400  and  _402
REMARK  170  A    between atoms: _402  and  _403
REMARK  171  A    between atoms: _402  and  _405
REMARK  172  A    between atoms: _405  and  _406
REMARK  173  A    between atoms: _411  and  _413
REMARK  174  A    between atoms: _413  and  _414
REMARK  175  A    between atoms: _413  and  _416
REMARK  176  A    between atoms: _416  and  _417
REMARK  177  A    between atoms: _423  and  _425
REMARK  178  A    between atoms: _425  and  _426
REMARK  179  A    between atoms: _425  and  _428
REMARK  180  A    between atoms: _428  and  _429
REMARK  181  A    between atoms: _432  and  _434
REMARK  182  A    between atoms: _434  and  _435
REMARK  183  A    between atoms: _434  and  _437
REMARK  184  A    between atoms: _437  and  _438
REMARK  185  A    between atoms: _443  and  _445
REMARK  186  A    between atoms: _445  and  _446
REMARK  187  A    between atoms: _445  and  _448
REMARK  188  A    between atoms: _448  and  _449
REMARK  189  A    between atoms: _449  and  _450
REMARK  190  A    between atoms: _450  and  _451
REMARK  191  A    between atoms: _460  and  _462
REMARK  192  A    between atoms: _462  and  _463
REMARK  193  A    between atoms: _462  and  _465
REMARK  194  A    between atoms: _465  and  _466
REMARK  195  A    between atoms: _469  and  _471
REMARK  196  A    between atoms: _471  and  _472
REMARK  197  A    between atoms: _471  and  _474
REMARK  198  A    between atoms: _474  and  _475
REMARK  199  A    between atoms: _475  and  _476
REMARK  200  A    between atoms: _476  and  _477
REMARK  201  A    between atoms: _486  and  _488
REMARK  202  A    between atoms: _488  and  _489
REMARK  203  A    between atoms: _488  and  _491
REMARK  204  A    between atoms: _491  and  _492
REMARK  205  A    between atoms: _497  and  _499
REMARK  206  A    between atoms: _499  and  _500
REMARK  207  A    between atoms: _499  and  _502
REMARK  208  A    between atoms: _504  and  _506
REMARK  209  A    between atoms: _506  and  _507
REMARK  210  A    between atoms: _506  and  _509
REMARK  211  A    between atoms: _509  and  _510
REMARK  212  A    between atoms: _513  and  _515
REMARK  213  A    between atoms: _515  and  _516
REMARK  214  A    between atoms: _515  and  _518
REMARK  215  A    between atoms: _521  and  _523
REMARK  216  A    between atoms: _523  and  _524
REMARK  217  A    between atoms: _523  and  _526
REMARK  218  A    between atoms: _526  and  _527
REMARK  219  A    between atoms: _527  and  _528
REMARK  220  A    between atoms: _528  and  _529
REMARK  221  A    between atoms: _529  and  _530
REMARK  222  A    between atoms: _534  and  _536
REMARK  223  A    between atoms: _536  and  _537
REMARK  224  A    between atoms: _536  and  _539
REMARK  225  A    between atoms: _542  and  _544
REMARK  226  A    between atoms: _544  and  _545
REMARK  227  A    between atoms: _548  and  _550
REMARK  228  A    between atoms: _550  and  _551
REMARK  229  A    between atoms: _550  and  _553
REMARK  230  A    between atoms: _553  and  _554
REMARK  231  A    between atoms: _557  and  _559
REMARK  232  A    between atoms: _559  and  _560
REMARK  233  A    between atoms: _559  and  _562
REMARK  234  A    between atoms: _562  and  _563
REMARK  235  A    between atoms: _569  and  _571
REMARK  236  A    between atoms: _571  and  _572
REMARK  237  A    between atoms: _574  and  _576
REMARK  238  A    between atoms: _576  and  _577
REMARK  239  A    between atoms: _576  and  _579
REMARK  240  A    between atoms: _579  and  _580
REMARK  241  A    between atoms: _583  and  _585
REMARK  242  A    between atoms: _585  and  _586
REMARK  243  A    between atoms: _585  and  _588
REMARK  244  A    between atoms: _588  and  _589
REMARK                            x       y       z     vdW  Elec       q    Type
REMARK                         _______ _______ _______ _____ _____    ______ ____
ROOT
ATOM      1  CA  LEU A   1      28.420   9.378  25.083  0.00  0.00    +0.133 C 
ENDROOT
BRANCH   1   2
ATOM      2  N   LEU A   1      28.285   8.272  26.044  0.00  0.00    -0.239 NA
ATOM      3  H   LEU A   1      27.473   8.252  26.693  0.00  0.00    +0.142 HD
ENDBRANCH   1   2
BRANCH   1   4
ATOM      4  C   LEU A   1      29.726  10.143  25.265  0.00  0.00    +0.224 C 
ATOM      5  O   LEU A   1      30.478  10.339  24.310  0.00  0.00    -0.287 OA
ENDBRANCH   1   4
BRANCH   1   6
ATOM      6  CB  LEU A   1      27.222  10.328  25.157  0.00  0.00    +0.025 C 
BRANCH   6   7
ATOM      7  CG  LEU A   1      25.941   9.737  24.588  0.00  0.00    +0.002 C 
ATOM      8  CD2 LEU A   1      24.766  10.714  24.777  0.00  0.00    +0.000 C 
ATOM      9  CD1 LEU A   1      26.121   9.365  23.138  0.00  0.00    +0.000 C 
ENDBRANCH   6   7
ENDBRANCH   1   6
TORSDOF 4
REMARK  Name = ../refined-set-2016/3gvu/3gvu_pocket.pdb
REMARK  244 active torsions:
REMARK  status: ('A' for Active; 'I' for Inactive)
REMARK    1  A    between atoms: _1  and  _3
REMARK    2  A    between atoms: _3  and  _4
REMARK    3  A    between atoms: _3  and  _6
REMARK    4  A    between atoms: _6  and  _7
REMARK    5  A    between atoms: _10  and  _12
REMARK    6  A    between atoms: _12  and  _13
REMARK    7  A    between atoms: _15  and  _17
REMARK    8  A    between atoms: _17  and  _18
REMARK    9  A    between atoms: _17  and  _20
REMARK   10  A    between atoms: _20  and  _21
REMARK   11  A    between atoms: _21  and  _22
REMARK   12  A    between atoms: _27  and  _29
REMARK   13  A    between atoms: _29  and  _30
REMARK   14  A    between atoms: _29  and  _32
REMARK   15  A    between atoms: _32  and  _33
REMARK   16  A    between atoms: _38  and  _39
REMARK   17  A    between atoms: _41  and  _43
REMARK   18  A    between atoms: _43  and  _44
REMARK   19  A    between atoms: _46  and  _48
REMARK   20  A    between atoms: _48  and  _49
REMARK   21  A    between atoms: _48  and  _51
REMARK   22  A    between atoms: _51  and  _52
REMARK   23  A    between atoms: _52  and  _53
REMARK   24  A    between atoms: _56  and  _58
REMARK   25  A    between atoms: _58  and  _59
REMARK   26  A    between atoms: _58  and  _61
REMARK   27  A    between atoms: _64  and  _66
REMARK   28  A    between atoms: _66  and  _67
REMARK   29  A    between atoms: _66  and  _69
REMARK   30  A    between atoms: _69  and  _70
REMARK   31  A    between atoms: _75  and  _76
REMARK   32  A    between atoms: _78  and  _80
REMARK   33  A    between atoms: _80  and  _81
REMARK   34  A    between atoms: _80  and  _83
REMARK   35  A    between atoms: _86  and  _88
REMARK   36  A    between atoms: _88  and  _89
REMARK   37  A    between atoms: _88  and  _91
REMARK   38  A    between atoms: _91  and  _92
REMARK   39  A    between atoms: _95  and  _97
REMARK   40  A    between atoms: _97  and  _98
REMARK   41  A    between atoms: _97  and  _100
REMARK   42  A    between atoms: _103  and  _105
REMARK   43  A    between atoms: _105  and  _106
REMARK   44  A    between atoms: _109  and  _111
REMARK   45  A    between atoms: _111  and  _112
REMARK   46  A    between atoms: _111  and  _114
REMARK   47  A    between atoms: _117  and  _119
REMARK   48  A    between atoms: _119  and  _120
REMARK   49  A    between atoms: _119  and  _122
REMARK   50  A    between atoms: _122  and  _123
REMARK   51  A    between atoms: _123  and  _124
REMARK   52  A    between atoms: _124  and  _125
REMARK   53  A    between atoms: _125  and  _126
REMARK   54  A    between atoms: _130  and  _132
REMARK   55  A    between atoms: _132  and  _133
REMARK   56  A    between atoms: _132  and  _135
REMARK   57  A    between atoms: _135  and  _136
REMARK   58  A    between atoms: _139  and  _141
REMARK   59  A    between atoms: _141  and  _142
REMARK   60  A    between atoms: _141  and  _144
REMARK   61  A    between atoms: _144  and  _145
REMARK   62  A    between atoms: _145  and  _146
REMARK   63  A    between atoms: _149  and  _151
REMARK   64  A    between atoms: _151  and  _152
REMARK   65  A    between atoms: _151  and  _154
REMARK   66  A    between atoms: _154  and  _155
REMARK   67  A    between atoms: _161  and  _163
REMARK   68  A    between atoms: _163  and  _164
REMARK   69  A    between atoms: _163  and  _166
REMARK   70  A    between atoms: _166  and  _167
REMARK   71  A    between atoms: _167  and  _168
REMARK   72  A    between atoms: _168  and  _169
REMARK   73  A    between atoms: _169  and  _170
REMARK   74  A    between atoms: _174  and  _176
REMARK   75  A    between atoms: _176  and  _177
REMARK   76  A    between atoms: _176  and  _179
REMARK   77  A    between atoms: _179  and  _180
REMARK   78  A    between atoms: _180  and  _181
REMARK   79  A    between atoms: _184  and  _186
REMARK   80  A    between atoms: _186  and  _187
REMARK   81  A    between atoms: _190  and  _192
REMARK   82  A    between atoms: _192  and  _193
REMARK   83  A    between atoms: _192  and  _195
REMARK   84  A    between atoms: _198  and  _200
REMARK   85  A    between atoms: _200  and  _201
REMARK   86  A    between atoms: _200  and  _203
REMARK   87  A    between atoms: _203  and  _204
REMARK   88  A    between atoms: _204  and  _205
REMARK   89  A    between atoms: _207  and  _209
REMARK   90  A    between atoms: _209  and  _210
REMARK   91  A    between atoms: _209  and  _212
REMARK   92  A    between atoms: _212  and  _213
REMARK   93  A    between atoms: _213  and  _214
REMARK   94  A    between atoms: _214  and  _215
REMARK   95  A    between atoms: _215  and  _216
REMARK   96  A    between atoms: _220  and  _222
REMARK   97  A    between atoms: _222  and  _223
REMARK   98  A    between atoms: _222  and  _225
REMARK   99  A    between atoms: _225  and  _226
REMARK  100  A    between atoms: _229  and  _231
REMARK  101  A    between atoms: _231  and  _232
REMARK  102  A    between atoms: _231  and  _234
REMARK  103  A    between atoms: _234  and  _235
REMARK  104  A    between atoms: _238  and  _240
REMARK  105  A    between atoms: _240  and  _241
REMARK  106  A    between atoms: _240  and  _243
REMARK  107  A    between atoms: _246  and  _248
REMARK  108  A    between atoms: _248  and  _249
REMARK  109  A    between atoms: _248  and  _251
REMARK  110  A    between atoms: _251  and  _252
REMARK  111  A    between atoms: _252  and  _253
REMARK  112  A    between atoms: _258  and  _260
REMARK  113  A    between atoms: _260  and  _261
REMARK  114  A    between atoms: _260  and  _263
REMARK  115  A    between atoms: _263  and  _264
REMARK  116  A    between atoms: _267  and  _269
REMARK  117  A    between atoms: _269  and  _270
REMARK  118  A    between atoms: _269  and  _272
REMARK  119  A    between atoms: _272  and  _273
REMARK  120  A    between atoms: _276  and  _278
REMARK  121  A    between atoms: _278  and  _279
REMARK  122  A    between atoms: _281  and  _283
REMARK  123  A    between atoms: _283  and  _284
REMARK  124  A    between atoms: _283  and  _286
REMARK  125  A    between atoms: _286  and  _287
REMARK  126  A    between atoms: _292  and  _293
REMARK  127  A    between atoms: _295  and  _297
REMARK  128  A    between atoms: _297  and  _298
REMARK  129  A    between atoms: _297  and  _300
REMARK  130  A    between atoms: _300  and  _301
REMARK  131  A    between atoms: _304  and  _306
REMARK  132  A    between atoms: _306  and  _307
REMARK  133  A    between atoms: _306  and  _309
REMARK  134  A    between atoms: _312  and  _314
REMARK  135  A    between atoms: _314  and  _315
REMARK  136  A    between atoms: _314  and  _317
REMARK  137  A    between atoms: _317  and  _318
REMARK  138  A    between atoms: _321  and  _323
REMARK  139  A    between atoms: _323  and  _324
REMARK  140  A    between atoms: _323  and  _326
REMARK  141  A    between atoms: _326  and  _327
REMARK  142  A    between atoms: _327  and  _328
REMARK  143  A    between atoms: _331  and  _333
REMARK  144  A    between atoms: _333  and  _334
REMARK  145  A    between atoms: _333  and  _336
REMARK  146  A    between atoms: _336  and  _337
REMARK  147  A    between atoms: _342  and  _343
REMARK  148  A    between atoms: _345  and  _347
REMARK  149  A    between atoms: _347  and  _348
REMARK  150  A    between atoms: _347  and  _350
REMARK  151  A    between atoms: _350  and  _351
REMARK  152  A    between atoms: _351  and  _352
REMARK  153  A    between atoms: _355  and  _356
REMARK  154  A    between atoms: _361  and  _363
REMARK  155  A    between atoms: _363  and  _364
REMARK  156  A    between atoms: _363  and  _366
REMARK  157  A    between atoms: _366  and  _367
REMARK  158  A    between atoms: _372  and  _373
REMARK  159  A    between atoms: _375  and  _377
REMARK  160  A    between atoms: _377  and  _378
REMARK  161  A    between atoms: _380  and  _382
REMARK  162  A    between atoms: _382  and  _383
REMARK  163  A    between atoms: _382  and  _385
REMARK  164  A    between atoms: _385  and  _386
REMARK  165  A    between atoms: _391  and  _393
REMARK  166  A    between atoms: _393  and  _394
REMARK  167  A    between atoms: _393  and  _396
REMARK  168  A    between atoms: _396  and  _397
REMARK  169  A    between atoms: _400  and  _402
REMARK  170  A    between atoms: _402  and  _403
REMARK  171  A    between atoms: _402  and  _405
REMARK  172  A    between atoms: _405  and  _406
REMARK  173  A    between atoms: _411  and  _413
REMARK  174  A    between atoms: _413  and  _414
REMARK  175  A    between atoms: _413  and  _416
REMARK  176  A    between atoms: _416  and  _417
REMARK  177  A    between atoms: _423  and  _425
REMARK  178  A    between atoms: _425  and  _426
REMARK  179  A    between atoms: _425  and  _428
REMARK  180  A    between atoms: _428  and  _429
REMARK  181  A    between atoms: _432  and  _434
REMARK  182  A    between atoms: _434  and  _435
REMARK  183  A    between atoms: _434  and  _437
REMARK  184  A    between atoms: _437  and  _438
REMARK  185  A    between atoms: _443  and  _445
REMARK  186  A    between atoms: _445  and  _446
REMARK  187  A    between atoms: _445  and  _448
REMARK  188  A    between atoms: _448  and  _449
REMARK  189  A    between atoms: _449  and  _450
REMARK  190  A    between atoms: _450  and  _451
REMARK  191  A    between atoms: _460  and  _462
REMARK  192  A    between atoms: _462  and  _463
REMARK  193  A    between atoms: _462  and  _465
REMARK  194  A    between atoms: _465  and  _466
REMARK  195  A    between atoms: _469  and  _471
REMARK  196  A    between atoms: _471  and  _472
REMARK  197  A    between atoms: _471  and  _474
REMARK  198  A    between atoms: _474  and  _475
REMARK  199  A    between atoms: _475  and  _476
REMARK  200  A    between atoms: _476  and  _477
REMARK  201  A    between atoms: _486  and  _488
REMARK  202  A    between atoms: _488  and  _489
REMARK  203  A    between atoms: _488  and  _491
REMARK  204  A    between atoms: _491  and  _492
REMARK  205  A    between atoms: _497  and  _499
REMARK  206  A    between atoms: _499  and  _500
REMARK  207  A    between atoms: _499  and  _502
REMARK  208  A    between atoms: _504  and  _506
REMARK  209  A    between atoms: _506  and  _507
REMARK  210  A    between atoms: _506  and  _509
REMARK  211  A    between atoms: _509  and  _510
REMARK  212  A    between atoms: _513  and  _515
REMARK  213  A    between atoms: _515  and  _516
REMARK  214  A    between atoms: _515  and  _518
REMARK  215  A    between atoms: _521  and  _523
REMARK  216  A    between atoms: _523  and  _524
REMARK  217  A    between atoms: _523  and  _526
REMARK  218  A    between atoms: _526  and  _527
REMARK  219  A    between atoms: _527  and  _528
REMARK  220  A    between atoms: _528  and  _529
REMARK  221  A    between atoms: _529  and  _530
REMARK  222  A    between atoms: _534  and  _536
REMARK  223  A    between atoms: _536  and  _537
REMARK  224  A    between atoms: _536  and  _539
REMARK  225  A    between atoms: _542  and  _544
REMARK  226  A    between atoms: _544  and  _545
REMARK  227  A    between atoms: _548  and  _550
REMARK  228  A    between atoms: _550  and  _551
REMARK  229  A    between atoms: _550  and  _553
REMARK  230  A    between atoms: _553  and  _554
REMARK  231  A    between atoms: _557  and  _559
REMARK  232  A    between atoms: _559  and  _560
REMARK  233  A    between atoms: _559  and  _562
REMARK  234  A    between atoms: _562  and  _563
REMARK  235  A    between atoms: _569  and  _571
REMARK  236  A    between atoms: _571  and  _572
REMARK  237  A    between atoms: _574  and  _576
REMARK  238  A    between atoms: _576  and  _577
REMARK  239  A    between atoms: _576  and  _579
REMARK  240  A    between atoms: _579  and  _580
REMARK  241  A    between atoms: _583  and  _585
REMARK  242  A    between atoms: _585  and  _586
REMARK  243  A    between atoms: _585  and  _588
REMARK  244  A    between atoms: _588  and  _589
REMARK                            x       y       z     vdW  Elec       q    Type
REMARK                         _______ _______ _______ _____ _____    ______ ____
ROOT
ATOM      1  CA  HIS A   4      23.899  15.473  23.650  0.00  0.00    +0.155 C 
ENDROOT
BRANCH   1   3
ATOM      2  C   ILE A   3      26.139  15.493  22.776  0.00  0.00    +0.241 C 
ATOM      3  N   HIS A   4      25.334  15.556  23.818  0.00  0.00    -0.297 N 
ATOM      4  H   HIS A   4      25.735  15.667  24.771  0.00  0.00    +0.150 HD
ATOM      5  O   ILE A   3      25.711  15.292  21.664  0.00  0.00    -0.273 OA
BRANCH   2   6
ATOM      6  CA  ILE A   3      27.650  15.659  23.022  0.00  0.00    +0.149 C 
BRANCH   6   9
ATOM      7  C   PHE A   2      29.146  13.730  22.590  0.00  0.00    +0.241 C 
ATOM      8  O   PHE A   2      29.549  13.640  23.750  0.00  0.00    -0.273 OA
ATOM      9  N   ILE A   3      28.345  14.704  22.148  0.00  0.00    -0.297 N 
ATOM     10  H   ILE A   3      28.205  14.792  21.121  0.00  0.00    +0.150 HD
BRANCH   7  11
ATOM     11  CA  PHE A   2      29.601  12.719  21.551  0.00  0.00    +0.153 C 
BRANCH  11  13
ATOM     12  C   ASN A   1      32.009  12.423  21.502  0.00  0.00    +0.239 C 
ATOM     13  N   PHE A   2      30.840  12.094  22.008  0.00  0.00    -0.297 N 
ATOM     14  H   PHE A   2      30.797  11.370  22.753  0.00  0.00    +0.150 HD
ATOM     15  O   ASN A   1      32.115  13.189  20.553  0.00  0.00    -0.274 OA
BRANCH  12  16
ATOM     16  CA  ASN A   1      33.248  11.798  22.169  0.00  0.00    +0.154 C 
BRANCH  16  17
ATOM     17  N   ASN A   1      33.047  10.427  22.675  0.00  0.00    -0.238 NA
ATOM     18  H   ASN A   1      33.119  10.266  23.700  0.00  0.00    +0.142 HD
ENDBRANCH  16  17
BRANCH  16  19
ATOM     19  CB  ASN A   1      34.430  11.848  21.204  0.00  0.00    +0.111 C 
BRANCH  19  20
ATOM     20  CG  ASN A   1      35.746  11.551  21.879  0.00  0.00    +0.221 C 
ATOM     21  OD1 ASN A   1      35.945  11.874  23.053  0.00  0.00    -0.275 OA
ATOM     22  ND2 ASN A   1      36.665  10.942  21.132  0.00  0.00    -0.329 N 
ATOM     23 HD21 ASN A   1      37.598  10.719  21.534  0.00  0.00    +0.145 HD
ATOM     24 HD22 ASN A   1      36.450  10.689  20.146  0.00  0.00    +0.145 HD
ENDBRANCH  19  20
ENDBRANCH  16  19
ENDBRANCH  12  16
ENDBRANCH  11  13
BRANCH  11  25
ATOM     25  CB  PHE A   2      28.520  11.665  21.345  0.00  0.00    +0.055 C 
BRANCH  25  26
ATOM     26  CG  PHE A   2      28.667  10.874  20.063  0.00  0.00    -0.020 A 
ATOM     27  CD2 PHE A   2      29.017   9.532  20.092  0.00  0.00    -0.004 A 
ATOM     28  CE2 PHE A   2      29.139   8.795  18.913  0.00  0.00    -0.000 A 
ATOM     29  CZ  PHE A   2      28.896   9.397  17.695  0.00  0.00    -0.000 A 
ATOM     30  CE1 PHE A   2      28.531  10.735  17.649  0.00  0.00    -0.000 A 
ATOM     31  CD1 PHE A   2      28.413  11.466  18.833  0.00  0.00    -0.004 A 
ENDBRANCH  25  26
ENDBRANCH  11  25
ENDBRANCH   7  11
ENDBRANCH   6   9
BRANCH   6  32
ATOM     32  CB  ILE A   3      28.079  17.111  22.719  0.00  0.00    +0.027 C 
ATOM     33  CG2 ILE A   3      27.264  18.078  23.528  0.00  0.00    +0.002 C 
BRANCH  32  34
ATOM     34  CG1 ILE A   3      29.567  17.314  23.044  0.00  0.00    +0.002 C 
ATOM     35  CD1 ILE A   3      30.278  18.382  22.179  0.00  0.00    +0.000 C 
ENDBRANCH  32  34
ENDBRANCH   6  32
ENDBRANCH   2   6
ENDBRANCH   1   3
BRANCH   1  36
ATOM     36  C   HIS A   4      23.339  16.811  23.160  0.00  0.00    +0.241 C 
ATOM     37  N   ARG A   5      23.604  17.872  23.932  0.00  0.00    -0.297 N 
ATOM     38  H   ARG A   5      24.136  17.696  24.808  0.00  0.00    +0.150 HD
ATOM     39  O   HIS A   4      22.680  16.847  22.121  0.00  0.00    -0.273 OA
BRANCH  37  40
ATOM     40  CA  ARG A   5      23.214  19.263  23.657  0.00  0.00    +0.149 C 
BRANCH  40  41
ATOM     41  C   ARG A   5      21.806  19.640  24.097  0.00  0.00    +0.241 C 
ATOM     42  N   ASP A   6      20.984  18.683  24.521  0.00  0.00    -0.298 N 
ATOM     43  H   ASP A   6      21.315  17.698  24.563  0.00  0.00    +0.150 HD
ATOM     44  O   ARG A   5      21.470  20.814  24.050  0.00  0.00    -0.273 OA
BRANCH  42  45
ATOM     45  CA  ASP A   6      19.606  19.013  24.932  0.00  0.00    +0.148 C 
BRANCH  45  46
ATOM     46  C   ASP A   6      19.058  18.031  25.956  0.00  0.00    +0.227 C 
ATOM     47  O   ASP A   6      17.915  17.538  25.864  0.00  0.00    -0.286 OA
ENDBRANCH  45  46
BRANCH  45  48
ATOM     48  CB  ASP A   6      18.691  19.115  23.715  0.00  0.00    +0.142 C 
BRANCH  48  49
ATOM     49  CG  ASP A   6      17.327  19.763  24.032  0.00  0.00    +0.367 C 
ATOM     50  OD2 ASP A   6      17.127  20.341  25.127  0.00  0.00    -0.246 OA
ATOM     51  OD1 ASP A   6      16.440  19.663  23.171  0.00  0.00    -0.246 OA
ENDBRANCH  48  49
ENDBRANCH  45  48
ENDBRANCH  42  45
ENDBRANCH  40  41
BRANCH  40  52
ATOM     52  CB  ARG A   5      23.387  19.641  22.174  0.00  0.00    +0.033 C 
BRANCH  52  53
ATOM     53  CG  ARG A   5      24.649  20.369  21.839  0.00  0.00    +0.045 C 
BRANCH  53  54
ATOM     54  CD  ARG A   5      24.683  20.634  20.344  0.00  0.00    +0.174 C 
BRANCH  54  55
ATOM     55  NE  ARG A   5      24.154  21.961  20.023  0.00  0.00    -0.265 N 
ATOM     56  HE  ARG A   5      23.131  22.107  20.137  0.00  0.00    +0.259 HD
ATOM     57  CZ  ARG A   5      24.879  23.001  19.595  0.00  0.00    +0.342 C 
ATOM     58  NH2 ARG A   5      26.195  22.891  19.410  0.00  0.00    -0.292 N 
ATOM     59 HH21 ARG A   5      26.673  21.987  19.599  0.00  0.00    +0.255 HD
ATOM     60 HH22 ARG A   5      26.743  23.709  19.077  0.00  0.00    +0.255 HD
ATOM     61  NH1 ARG A   5      24.279  24.165  19.338  0.00  0.00    -0.292 N 
ATOM     62 HH11 ARG A   5      23.252  24.261  19.471  0.00  0.00    +0.255 HD
ATOM     63 HH12 ARG A   5      24.838  24.976  19.005  0.00  0.00    +0.255 HD
ENDBRANCH  54  55
ENDBRANCH  53  54
ENDBRANCH  52  53
ENDBRANCH  40  52
ENDBRANCH  37  40
ENDBRANCH   1  36
BRANCH   1  64
ATOM     64  CB  HIS A   4      23.218  15.062  24.934  0.00  0.00    +0.076 C 
BRANCH  64  65
ATOM     65  CG  HIS A   4      21.778  14.748  24.749  0.00  0.00    +0.082 A 
ATOM     66  CD2 HIS A   4      21.120  13.570  24.729  0.00  0.00    +0.115 A 
ATOM     67  NE2 HIS A   4      19.804  13.846  24.474  0.00  0.00    -0.221 NA
ATOM     68  CE1 HIS A   4      19.658  15.151  24.335  0.00  0.00    +0.199 A 
ATOM     69  ND1 HIS A   4      20.838  15.718  24.503  0.00  0.00    -0.227 NA
ENDBRANCH  64  65
ENDBRANCH   1  64
TORSDOF 26
REMARK  Name = ../refined-set-2016/3gvu/3gvu_pocket.pdb
REMARK  244 active torsions:
REMARK  status: ('A' for Active; 'I' for Inactive)
REMARK    1  A    between atoms: _1  and  _3
REMARK    2  A    between atoms: _3  and  _4
REMARK    3  A    between atoms: _3  and  _6
REMARK    4  A    between atoms: _6  and  _7
REMARK    5  A    between atoms: _10  and  _12
REMARK    6  A    between atoms: _12  and  _13
REMARK    7  A    between atoms: _15  and  _17
REMARK    8  A    between atoms: _17  and  _18
REMARK    9  A    between atoms: _17  and  _20
REMARK   10  A    between atoms: _20  and  _21
REMARK   11  A    between atoms: _21  and  _22
REMARK   12  A    between atoms: _27  and  _29
REMARK   13  A    between atoms: _29  and  _30
REMARK   14  A    between atoms: _29  and  _32
REMARK   15  A    between atoms: _32  and  _33
REMARK   16  A    between atoms: _38  and  _39
REMARK   17  A    between atoms: _41  and  _43
REMARK   18  A    between atoms: _43  and  _44
REMARK   19  A    between atoms: _46  and  _48
REMARK   20  A    between atoms: _48  and  _49
REMARK   21  A    between atoms: _48  and  _51
REMARK   22  A    between atoms: _51  and  _52
REMARK   23  A    between atoms: _52  and  _53
REMARK   24  A    between atoms: _56  and  _58
REMARK   25  A    between atoms: _58  and  _59
REMARK   26  A    between atoms: _58  and  _61
REMARK   27  A    between atoms: _64  and  _66
REMARK   28  A    between atoms: _66  and  _67
REMARK   29  A    between atoms: _66  and  _69
REMARK   30  A    between atoms: _69  and  _70
REMARK   31  A    between atoms: _75  and  _76
REMARK   32  A    between atoms: _78  and  _80
REMARK   33  A    between atoms: _80  and  _81
REMARK   34  A    between atoms: _80  and  _83
REMARK   35  A    between atoms: _86  and  _88
REMARK   36  A    between atoms: _88  and  _89
REMARK   37  A    between atoms: _88  and  _91
REMARK   38  A    between atoms: _91  and  _92
REMARK   39  A    between atoms: _95  and  _97
REMARK   40  A    between atoms: _97  and  _98
REMARK   41  A    between atoms: _97  and  _100
REMARK   42  A    between atoms: _103  and  _105
REMARK   43  A    between atoms: _105  and  _106
REMARK   44  A    between atoms: _109  and  _111
REMARK   45  A    between atoms: _111  and  _112
REMARK   46  A    between atoms: _111  and  _114
REMARK   47  A    between atoms: _117  and  _119
REMARK   48  A    between atoms: _119  and  _120
REMARK   49  A    between atoms: _119  and  _122
REMARK   50  A    between atoms: _122  and  _123
REMARK   51  A    between atoms: _123  and  _124
REMARK   52  A    between atoms: _124  and  _125
REMARK   53  A    between atoms: _125  and  _126
REMARK   54  A    between atoms: _130  and  _132
REMARK   55  A    between atoms: _132  and  _133
REMARK   56  A    between atoms: _132  and  _135
REMARK   57  A    between atoms: _135  and  _136
REMARK   58  A    between atoms: _139  and  _141
REMARK   59  A    between atoms: _141  and  _142
REMARK   60  A    between atoms: _141  and  _144
REMARK   61  A    between atoms: _144  and  _145
REMARK   62  A    between atoms: _145  and  _146
REMARK   63  A    between atoms: _149  and  _151
REMARK   64  A    between atoms: _151  and  _152
REMARK   65  A    between atoms: _151  and  _154
REMARK   66  A    between atoms: _154  and  _155
REMARK   67  A    between atoms: _161  and  _163
REMARK   68  A    between atoms: _163  and  _164
REMARK   69  A    between atoms: _163  and  _166
REMARK   70  A    between atoms: _166  and  _167
REMARK   71  A    between atoms: _167  and  _168
REMARK   72  A    between atoms: _168  and  _169
REMARK   73  A    between atoms: _169  and  _170
REMARK   74  A    between atoms: _174  and  _176
REMARK   75  A    between atoms: _176  and  _177
REMARK   76  A    between atoms: _176  and  _179
REMARK   77  A    between atoms: _179  and  _180
REMARK   78  A    between atoms: _180  and  _181
REMARK   79  A    between atoms: _184  and  _186
REMARK   80  A    between atoms: _186  and  _187
REMARK   81  A    between atoms: _190  and  _192
REMARK   82  A    between atoms: _192  and  _193
REMARK   83  A    between atoms: _192  and  _195
REMARK   84  A    between atoms: _198  and  _200
REMARK   85  A    between atoms: _200  and  _201
REMARK   86  A    between atoms: _200  and  _203
REMARK   87  A    between atoms: _203  and  _204
REMARK   88  A    between atoms: _204  and  _205
REMARK   89  A    between atoms: _207  and  _209
REMARK   90  A    between atoms: _209  and  _210
REMARK   91  A    between atoms: _209  and  _212
REMARK   92  A    between atoms: _212  and  _213
REMARK   93  A    between atoms: _213  and  _214
REMARK   94  A    between atoms: _214  and  _215
REMARK   95  A    between atoms: _215  and  _216
REMARK   96  A    between atoms: _220  and  _222
REMARK   97  A    between atoms: _222  and  _223
REMARK   98  A    between atoms: _222  and  _225
REMARK   99  A    between atoms: _225  and  _226
REMARK  100  A    between atoms: _229  and  _231
REMARK  101  A    between atoms: _231  and  _232
REMARK  102  A    between atoms: _231  and  _234
REMARK  103  A    between atoms: _234  and  _235
REMARK  104  A    between atoms: _238  and  _240
REMARK  105  A    between atoms: _240  and  _241
REMARK  106  A    between atoms: _240  and  _243
REMARK  107  A    between atoms: _246  and  _248
REMARK  108  A    between atoms: _248  and  _249
REMARK  109  A    between atoms: _248  and  _251
REMARK  110  A    between atoms: _251  and  _252
REMARK  111  A    between atoms: _252  and  _253
REMARK  112  A    between atoms: _258  and  _260
REMARK  113  A    between atoms: _260  and  _261
REMARK  114  A    between atoms: _260  and  _263
REMARK  115  A    between atoms: _263  and  _264
REMARK  116  A    between atoms: _267  and  _269
REMARK  117  A    between atoms: _269  and  _270
REMARK  118  A    between atoms: _269  and  _272
REMARK  119  A    between atoms: _272  and  _273
REMARK  120  A    between atoms: _276  and  _278
REMARK  121  A    between atoms: _278  and  _279
REMARK  122  A    between atoms: _281  and  _283
REMARK  123  A    between atoms: _283  and  _284
REMARK  124  A    between atoms: _283  and  _286
REMARK  125  A    between atoms: _286  and  _287
REMARK  126  A    between atoms: _292  and  _293
REMARK  127  A    between atoms: _295  and  _297
REMARK  128  A    between atoms: _297  and  _298
REMARK  129  A    between atoms: _297  and  _300
REMARK  130  A    between atoms: _300  and  _301
REMARK  131  A    between atoms: _304  and  _306
REMARK  132  A    between atoms: _306  and  _307
REMARK  133  A    between atoms: _306  and  _309
REMARK  134  A    between atoms: _312  and  _314
REMARK  135  A    between atoms: _314  and  _315
REMARK  136  A    between atoms: _314  and  _317
REMARK  137  A    between atoms: _317  and  _318
REMARK  138  A    between atoms: _321  and  _323
REMARK  139  A    between atoms: _323  and  _324
REMARK  140  A    between atoms: _323  and  _326
REMARK  141  A    between atoms: _326  and  _327
REMARK  142  A    between atoms: _327  and  _328
REMARK  143  A    between atoms: _331  and  _333
REMARK  144  A    between atoms: _333  and  _334
REMARK  145  A    between atoms: _333  and  _336
REMARK  146  A    between atoms: _336  and  _337
REMARK  147  A    between atoms: _342  and  _343
REMARK  148  A    between atoms: _345  and  _347
REMARK  149  A    between atoms: _347  and  _348
REMARK  150  A    between atoms: _347  and  _350
REMARK  151  A    between atoms: _350  and  _351
REMARK  152  A    between atoms: _351  and  _352
REMARK  153  A    between atoms: _355  and  _356
REMARK  154  A    between atoms: _361  and  _363
REMARK  155  A    between atoms: _363  and  _364
REMARK  156  A    between atoms: _363  and  _366
REMARK  157  A    between atoms: _366  and  _367
REMARK  158  A    between atoms: _372  and  _373
REMARK  159  A    between atoms: _375  and  _377
REMARK  160  A    between atoms: _377  and  _378
REMARK  161  A    between atoms: _380  and  _382
REMARK  162  A    between atoms: _382  and  _383
REMARK  163  A    between atoms: _382  and  _385
REMARK  164  A    between atoms: _385  and  _386
REMARK  165  A    between atoms: _391  and  _393
REMARK  166  A    between atoms: _393  and  _394
REMARK  167  A    between atoms: _393  and  _396
REMARK  168  A    between atoms: _396  and  _397
REMARK  169  A    between atoms: _400  and  _402
REMARK  170  A    between atoms: _402  and  _403
REMARK  171  A    between atoms: _402  and  _405
REMARK  172  A    between atoms: _405  and  _406
REMARK  173  A    between atoms: _411  and  _413
REMARK  174  A    between atoms: _413  and  _414
REMARK  175  A    between atoms: _413  and  _416
REMARK  176  A    between atoms: _416  and  _417
REMARK  177  A    between atoms: _423  and  _425
REMARK  178  A    between atoms: _425  and  _426
REMARK  179  A    between atoms: _425  and  _428
REMARK  180  A    between atoms: _428  and  _429
REMARK  181  A    between atoms: _432  and  _434
REMARK  182  A    between atoms: _434  and  _435
REMARK  183  A    between atoms: _434  and  _437
REMARK  184  A    between atoms: _437  and  _438
REMARK  185  A    between atoms: _443  and  _445
REMARK  186  A    between atoms: _445  and  _446
REMARK  187  A    between atoms: _445  and  _448
REMARK  188  A    between atoms: _448  and  _449
REMARK  189  A    between atoms: _449  and  _450
REMARK  190  A    between atoms: _450  and  _451
REMARK  191  A    between atoms: _460  and  _462
REMARK  192  A    between atoms: _462  and  _463
REMARK  193  A    between atoms: _462  and  _465
REMARK  194  A    between atoms: _465  and  _466
REMARK  195  A    between atoms: _469  and  _471
REMARK  196  A    between atoms: _471  and  _472
REMARK  197  A    between atoms: _471  and  _474
REMARK  198  A    between atoms: _474  and  _475
REMARK  199  A    between atoms: _475  and  _476
REMARK  200  A    between atoms: _476  and  _477
REMARK  201  A    between atoms: _486  and  _488
REMARK  202  A    between atoms: _488  and  _489
REMARK  203  A    between atoms: _488  and  _491
REMARK  204  A    between atoms: _491  and  _492
REMARK  205  A    between atoms: _497  and  _499
REMARK  206  A    between atoms: _499  and  _500
REMARK  207  A    between atoms: _499  and  _502
REMARK  208  A    between atoms: _504  and  _506
REMARK  209  A    between atoms: _506  and  _507
REMARK  210  A    between atoms: _506  and  _509
REMARK  211  A    between atoms: _509  and  _510
REMARK  212  A    between atoms: _513  and  _515
REMARK  213  A    between atoms: _515  and  _516
REMARK  214  A    between atoms: _515  and  _518
REMARK  215  A    between atoms: _521  and  _523
REMARK  216  A    between atoms: _523  and  _524
REMARK  217  A    between atoms: _523  and  _526
REMARK  218  A    between atoms: _526  and  _527
REMARK  219  A    between atoms: _527  and  _528
REMARK  220  A    between atoms: _528  and  _529
REMARK  221  A    between atoms: _529  and  _530
REMARK  222  A    between atoms: _534  and  _536
REMARK  223  A    between atoms: _536  and  _537
REMARK  224  A    between atoms: _536  and  _539
REMARK  225  A    between atoms: _542  and  _544
REMARK  226  A    between atoms: _544  and  _545
REMARK  227  A    between atoms: _548  and  _550
REMARK  228  A    between atoms: _550  and  _551
REMARK  229  A    between atoms: _550  and  _553
REMARK  230  A    between atoms: _553  and  _554
REMARK  231  A    between atoms: _557  and  _559
REMARK  232  A    between atoms: _559  and  _560
REMARK  233  A    between atoms: _559  and  _562
REMARK  234  A    between atoms: _562  and  _563
REMARK  235  A    between atoms: _569  and  _571
REMARK  236  A    between atoms: _571  and  _572
REMARK  237  A    between atoms: _574  and  _576
REMARK  238  A    between atoms: _576  and  _577
REMARK  239  A    between atoms: _576  and  _579
REMARK  240  A    between atoms: _579  and  _580
REMARK  241  A    between atoms: _583  and  _585
REMARK  242  A    between atoms: _585  and  _586
REMARK  243  A    between atoms: _585  and  _588
REMARK  244  A    between atoms: _588  and  _589
REMARK                            x       y       z     vdW  Elec       q    Type
REMARK                         _______ _______ _______ _____ _____    ______ ____
ROOT
ATOM      1  CA  ASN A   2      14.023  13.955  26.304  0.00  0.00    +0.158 C 
ENDROOT
BRANCH   1   3
ATOM      2  C   ARG A   1      11.956  14.835  27.360  0.00  0.00    +0.238 C 
ATOM      3  N   ASN A   2      13.285  14.676  27.348  0.00  0.00    -0.297 N 
ATOM      4  H   ASN A   2      13.831  15.091  28.130  0.00  0.00    +0.150 HD
ATOM      5  O   ARG A   1      11.211  14.411  26.477  0.00  0.00    -0.274 OA
BRANCH   2   6
ATOM      6  CA  ARG A   1      11.341  15.609  28.566  0.00  0.00    +0.145 C 
BRANCH   6   7
ATOM      7  N   ARG A   1      12.226  15.700  29.729  0.00  0.00    -0.238 NA
ATOM      8  H   ARG A   1      12.522  16.640  30.061  0.00  0.00    +0.142 HD
ENDBRANCH   6   7
BRANCH   6   9
ATOM      9  CB  ARG A   1      10.886  17.017  28.102  0.00  0.00    +0.030 C 
BRANCH   9  10
ATOM     10  CG  ARG A   1      12.037  17.865  27.523  0.00  0.00    +0.045 C 
BRANCH  10  11
ATOM     11  CD  ARG A   1      11.632  19.283  27.026  0.00  0.00    +0.174 C 
BRANCH  11  12
ATOM     12  NE  ARG A   1      12.879  19.966  26.654  0.00  0.00    -0.265 N 
ATOM     13  CZ  ARG A   1      13.662  20.661  27.481  0.00  0.00    +0.342 C 
ATOM     14  NH2 ARG A   1      13.324  20.866  28.755  0.00  0.00    -0.292 N 
ATOM     15 HH21 ARG A   1      13.953  21.411  29.378  0.00  0.00    +0.255 HD
ATOM     16 HH22 ARG A   1      12.432  20.480  29.125  0.00  0.00    +0.255 HD
ATOM     17  NH1 ARG A   1      14.797  21.174  27.023  0.00  0.00    -0.292 N 
ATOM     18 HH11 ARG A   1      15.416  21.718  27.658  0.00  0.00    +0.255 HD
ATOM     19 HH12 ARG A   1      15.068  21.032  26.029  0.00  0.00    +0.255 HD
ATOM     20  HE  ARG A   1      13.177  19.902  25.660  0.00  0.00    +0.259 HD
ENDBRANCH  11  12
ENDBRANCH  10  11
ENDBRANCH   9  10
ENDBRANCH   6   9
ENDBRANCH   2   6
ENDBRANCH   1   3
BRANCH   1  21
ATOM     21  C   ASN A   2      14.446  12.553  26.712  0.00  0.00    +0.241 C 
ATOM     22  N   CYS A   3      13.951  12.093  27.865  0.00  0.00    -0.296 N 
ATOM     23  H   CYS A   3      13.404  12.737  28.472  0.00  0.00    +0.150 HD
ATOM     24  O   ASN A   2      15.224  11.910  26.016  0.00  0.00    -0.273 OA
BRANCH  22  25
ATOM     25  CA  CYS A   3      14.154  10.724  28.295  0.00  0.00    +0.160 C 
BRANCH  25  26
ATOM     26  C   CYS A   3      12.877   9.918  28.168  0.00  0.00    +0.242 C 
ATOM     27  O   CYS A   3      11.786  10.456  28.265  0.00  0.00    -0.273 OA
ATOM     28  N   LEU A   4      13.016   8.606  27.984  0.00  0.00    -0.297 N 
ATOM     29  H   LEU A   4      13.971   8.196  27.943  0.00  0.00    +0.150 HD
BRANCH  28  30
ATOM     30  CA  LEU A   4      11.865   7.739  27.840  0.00  0.00    +0.149 C 
BRANCH  30  31
ATOM     31  C   LEU A   4      11.912   6.655  28.897  0.00  0.00    +0.241 C 
ATOM     32  O   LEU A   4      12.981   6.292  29.367  0.00  0.00    -0.273 OA
ATOM     33  N   VAL A   5      10.735   6.149  29.256  0.00  0.00    -0.298 N 
ATOM     34  H   VAL A   5       9.883   6.480  28.760  0.00  0.00    +0.150 HD
BRANCH  33  35
ATOM     35  CA  VAL A   5      10.581   5.155  30.308  0.00  0.00    +0.137 C 
BRANCH  35  36
ATOM     36  CB  VAL A   5       9.740   5.728  31.471  0.00  0.00    +0.026 C 
ATOM     37  CG2 VAL A   5       9.657   4.746  32.624  0.00  0.00    +0.002 C 
ATOM     38  CG1 VAL A   5      10.374   7.034  31.937  0.00  0.00    +0.002 C 
ENDBRANCH  35  36
BRANCH  35  39
ATOM     39  C   VAL A   5       9.955   3.873  29.769  0.00  0.00    +0.227 C 
ATOM     40  O   VAL A   5       8.930   3.893  29.074  0.00  0.00    -0.286 OA
ENDBRANCH  35  39
ENDBRANCH  33  35
ENDBRANCH  30  31
BRANCH  30  41
ATOM     41  CB  LEU A   4      11.839   7.117  26.444  0.00  0.00    +0.029 C 
BRANCH  41  42
ATOM     42  CG  LEU A   4      11.665   8.106  25.276  0.00  0.00    +0.002 C 
ATOM     43  CD2 LEU A   4      10.227   8.653  25.245  0.00  0.00    +0.000 C 
ATOM     44  CD1 LEU A   4      11.997   7.445  23.903  0.00  0.00    +0.000 C 
ENDBRANCH  41  42
ENDBRANCH  30  41
ENDBRANCH  28  30
ENDBRANCH  25  26
BRANCH  25  45
ATOM     45  CB  CYS A   3      14.670  10.673  29.729  0.00  0.00    +0.098 C 
ATOM     46  SG  CYS A   3      16.311  11.436  29.901  0.00  0.00    -0.080 S 
ENDBRANCH  25  45
ENDBRANCH  22  25
ENDBRANCH   1  21
BRANCH   1  47
ATOM     47  CB  ASN A   2      15.272  14.741  25.924  0.00  0.00    +0.114 C 
BRANCH  47  48
ATOM     48  CG  ASN A   2      14.958  15.876  25.029  0.00  0.00    +0.222 C 
ATOM     49  OD1 ASN A   2      15.113  17.055  25.409  0.00  0.00    -0.275 OA
ATOM     50  ND2 ASN A   2      14.465  15.543  23.822  0.00  0.00    -0.329 N 
ATOM     51 HD21 ASN A   2      14.359  14.542  23.562  0.00  0.00    +0.145 HD
ATOM     52 HD22 ASN A   2      14.190  16.287  23.149  0.00  0.00    +0.145 HD
ENDBRANCH  47  48
ENDBRANCH   1  47
TORSDOF 20
REMARK  Name = ../refined-set-2016/3gvu/3gvu_pocket.pdb
REMARK  244 active torsions:
REMARK  status: ('A' for Active; 'I' for Inactive)
REMARK    1  A    between atoms: _1  and  _3
REMARK    2  A    between atoms: _3  and  _4
REMARK    3  A    between atoms: _3  and  _6
REMARK    4  A    between atoms: _6  and  _7
REMARK    5  A    between atoms: _10  and  _12
REMARK    6  A    between atoms: _12  and  _13
REMARK    7  A    between atoms: _15  and  _17
REMARK    8  A    between atoms: _17  and  _18
REMARK    9  A    between atoms: _17  and  _20
REMARK   10  A    between atoms: _20  and  _21
REMARK   11  A    between atoms: _21  and  _22
REMARK   12  A    between atoms: _27  and  _29
REMARK   13  A    between atoms: _29  and  _30
REMARK   14  A    between atoms: _29  and  _32
REMARK   15  A    between atoms: _32  and  _33
REMARK   16  A    between atoms: _38  and  _39
REMARK   17  A    between atoms: _41  and  _43
REMARK   18  A    between atoms: _43  and  _44
REMARK   19  A    between atoms: _46  and  _48
REMARK   20  A    between atoms: _48  and  _49
REMARK   21  A    between atoms: _48  and  _51
REMARK   22  A    between atoms: _51  and  _52
REMARK   23  A    between atoms: _52  and  _53
REMARK   24  A    between atoms: _56  and  _58
REMARK   25  A    between atoms: _58  and  _59
REMARK   26  A    between atoms: _58  and  _61
REMARK   27  A    between atoms: _64  and  _66
REMARK   28  A    between atoms: _66  and  _67
REMARK   29  A    between atoms: _66  and  _69
REMARK   30  A    between atoms: _69  and  _70
REMARK   31  A    between atoms: _75  and  _76
REMARK   32  A    between atoms: _78  and  _80
REMARK   33  A    between atoms: _80  and  _81
REMARK   34  A    between atoms: _80  and  _83
REMARK   35  A    between atoms: _86  and  _88
REMARK   36  A    between atoms: _88  and  _89
REMARK   37  A    between atoms: _88  and  _91
REMARK   38  A    between atoms: _91  and  _92
REMARK   39  A    between atoms: _95  and  _97
REMARK   40  A    between atoms: _97  and  _98
REMARK   41  A    between atoms: _97  and  _100
REMARK   42  A    between atoms: _103  and  _105
REMARK   43  A    between atoms: _105  and  _106
REMARK   44  A    between atoms: _109  and  _111
REMARK   45  A    between atoms: _111  and  _112
REMARK   46  A    between atoms: _111  and  _114
REMARK   47  A    between atoms: _117  and  _119
REMARK   48  A    between atoms: _119  and  _120
REMARK   49  A    between atoms: _119  and  _122
REMARK   50  A    between atoms: _122  and  _123
REMARK   51  A    between atoms: _123  and  _124
REMARK   52  A    between atoms: _124  and  _125
REMARK   53  A    between atoms: _125  and  _126
REMARK   54  A    between atoms: _130  and  _132
REMARK   55  A    between atoms: _132  and  _133
REMARK   56  A    between atoms: _132  and  _135
REMARK   57  A    between atoms: _135  and  _136
REMARK   58  A    between atoms: _139  and  _141
REMARK   59  A    between atoms: _141  and  _142
REMARK   60  A    between atoms: _141  and  _144
REMARK   61  A    between atoms: _144  and  _145
REMARK   62  A    between atoms: _145  and  _146
REMARK   63  A    between atoms: _149  and  _151
REMARK   64  A    between atoms: _151  and  _152
REMARK   65  A    between atoms: _151  and  _154
REMARK   66  A    between atoms: _154  and  _155
REMARK   67  A    between atoms: _161  and  _163
REMARK   68  A    between atoms: _163  and  _164
REMARK   69  A    between atoms: _163  and  _166
REMARK   70  A    between atoms: _166  and  _167
REMARK   71  A    between atoms: _167  and  _168
REMARK   72  A    between atoms: _168  and  _169
REMARK   73  A    between atoms: _169  and  _170
REMARK   74  A    between atoms: _174  and  _176
REMARK   75  A    between atoms: _176  and  _177
REMARK   76  A    between atoms: _176  and  _179
REMARK   77  A    between atoms: _179  and  _180
REMARK   78  A    between atoms: _180  and  _181
REMARK   79  A    between atoms: _184  and  _186
REMARK   80  A    between atoms: _186  and  _187
REMARK   81  A    between atoms: _190  and  _192
REMARK   82  A    between atoms: _192  and  _193
REMARK   83  A    between atoms: _192  and  _195
REMARK   84  A    between atoms: _198  and  _200
REMARK   85  A    between atoms: _200  and  _201
REMARK   86  A    between atoms: _200  and  _203
REMARK   87  A    between atoms: _203  and  _204
REMARK   88  A    between atoms: _204  and  _205
REMARK   89  A    between atoms: _207  and  _209
REMARK   90  A    between atoms: _209  and  _210
REMARK   91  A    between atoms: _209  and  _212
REMARK   92  A    between atoms: _212  and  _213
REMARK   93  A    between atoms: _213  and  _214
REMARK   94  A    between atoms: _214  and  _215
REMARK   95  A    between atoms: _215  and  _216
REMARK   96  A    between atoms: _220  and  _222
REMARK   97  A    between atoms: _222  and  _223
REMARK   98  A    between atoms: _222  and  _225
REMARK   99  A    between atoms: _225  and  _226
REMARK  100  A    between atoms: _229  and  _231
REMARK  101  A    between atoms: _231  and  _232
REMARK  102  A    between atoms: _231  and  _234
REMARK  103  A    between atoms: _234  and  _235
REMARK  104  A    between atoms: _238  and  _240
REMARK  105  A    between atoms: _240  and  _241
REMARK  106  A    between atoms: _240  and  _243
REMARK  107  A    between atoms: _246  and  _248
REMARK  108  A    between atoms: _248  and  _249
REMARK  109  A    between atoms: _248  and  _251
REMARK  110  A    between atoms: _251  and  _252
REMARK  111  A    between atoms: _252  and  _253
REMARK  112  A    between atoms: _258  and  _260
REMARK  113  A    between atoms: _260  and  _261
REMARK  114  A    between atoms: _260  and  _263
REMARK  115  A    between atoms: _263  and  _264
REMARK  116  A    between atoms: _267  and  _269
REMARK  117  A    between atoms: _269  and  _270
REMARK  118  A    between atoms: _269  and  _272
REMARK  119  A    between atoms: _272  and  _273
REMARK  120  A    between atoms: _276  and  _278
REMARK  121  A    between atoms: _278  and  _279
REMARK  122  A    between atoms: _281  and  _283
REMARK  123  A    between atoms: _283  and  _284
REMARK  124  A    between atoms: _283  and  _286
REMARK  125  A    between atoms: _286  and  _287
REMARK  126  A    between atoms: _292  and  _293
REMARK  127  A    between atoms: _295  and  _297
REMARK  128  A    between atoms: _297  and  _298
REMARK  129  A    between atoms: _297  and  _300
REMARK  130  A    between atoms: _300  and  _301
REMARK  131  A    between atoms: _304  and  _306
REMARK  132  A    between atoms: _306  and  _307
REMARK  133  A    between atoms: _306  and  _309
REMARK  134  A    between atoms: _312  and  _314
REMARK  135  A    between atoms: _314  and  _315
REMARK  136  A    between atoms: _314  and  _317
REMARK  137  A    between atoms: _317  and  _318
REMARK  138  A    between atoms: _321  and  _323
REMARK  139  A    between atoms: _323  and  _324
REMARK  140  A    between atoms: _323  and  _326
REMARK  141  A    between atoms: _326  and  _327
REMARK  142  A    between atoms: _327  and  _328
REMARK  143  A    between atoms: _331  and  _333
REMARK  144  A    between atoms: _333  and  _334
REMARK  145  A    between atoms: _333  and  _336
REMARK  146  A    between atoms: _336  and  _337
REMARK  147  A    between atoms: _342  and  _343
REMARK  148  A    between atoms: _345  and  _347
REMARK  149  A    between atoms: _347  and  _348
REMARK  150  A    between atoms: _347  and  _350
REMARK  151  A    between atoms: _350  and  _351
REMARK  152  A    between atoms: _351  and  _352
REMARK  153  A    between atoms: _355  and  _356
REMARK  154  A    between atoms: _361  and  _363
REMARK  155  A    between atoms: _363  and  _364
REMARK  156  A    between atoms: _363  and  _366
REMARK  157  A    between atoms: _366  and  _367
REMARK  158  A    between atoms: _372  and  _373
REMARK  159  A    between atoms: _375  and  _377
REMARK  160  A    between atoms: _377  and  _378
REMARK  161  A    between atoms: _380  and  _382
REMARK  162  A    between atoms: _382  and  _383
REMARK  163  A    between atoms: _382  and  _385
REMARK  164  A    between atoms: _385  and  _386
REMARK  165  A    between atoms: _391  and  _393
REMARK  166  A    between atoms: _393  and  _394
REMARK  167  A    between atoms: _393  and  _396
REMARK  168  A    between atoms: _396  and  _397
REMARK  169  A    between atoms: _400  and  _402
REMARK  170  A    between atoms: _402  and  _403
REMARK  171  A    between atoms: _402  and  _405
REMARK  172  A    between atoms: _405  and  _406
REMARK  173  A    between atoms: _411  and  _413
REMARK  174  A    between atoms: _413  and  _414
REMARK  175  A    between atoms: _413  and  _416
REMARK  176  A    between atoms: _416  and  _417
REMARK  177  A    between atoms: _423  and  _425
REMARK  178  A    between atoms: _425  and  _426
REMARK  179  A    between atoms: _425  and  _428
REMARK  180  A    between atoms: _428  and  _429
REMARK  181  A    between atoms: _432  and  _434
REMARK  182  A    between atoms: _434  and  _435
REMARK  183  A    between atoms: _434  and  _437
REMARK  184  A    between atoms: _437  and  _438
REMARK  185  A    between atoms: _443  and  _445
REMARK  186  A    between atoms: _445  and  _446
REMARK  187  A    between atoms: _445  and  _448
REMARK  188  A    between atoms: _448  and  _449
REMARK  189  A    between atoms: _449  and  _450
REMARK  190  A    between atoms: _450  and  _451
REMARK  191  A    between atoms: _460  and  _462
REMARK  192  A    between atoms: _462  and  _463
REMARK  193  A    between atoms: _462  and  _465
REMARK  194  A    between atoms: _465  and  _466
REMARK  195  A    between atoms: _469  and  _471
REMARK  196  A    between atoms: _471  and  _472
REMARK  197  A    between atoms: _471  and  _474
REMARK  198  A    between atoms: _474  and  _475
REMARK  199  A    between atoms: _475  and  _476
REMARK  200  A    between atoms: _476  and  _477
REMARK  201  A    between atoms: _486  and  _488
REMARK  202  A    between atoms: _488  and  _489
REMARK  203  A    between atoms: _488  and  _491
REMARK  204  A    between atoms: _491  and  _492
REMARK  205  A    between atoms: _497  and  _499
REMARK  206  A    between atoms: _499  and  _500
REMARK  207  A    between atoms: _499  and  _502
REMARK  208  A    between atoms: _504  and  _506
REMARK  209  A    between atoms: _506  and  _507
REMARK  210  A    between atoms: _506  and  _509
REMARK  211  A    between atoms: _509  and  _510
REMARK  212  A    between atoms: _513  and  _515
REMARK  213  A    between atoms: _515  and  _516
REMARK  214  A    between atoms: _515  and  _518
REMARK  215  A    between atoms: _521  and  _523
REMARK  216  A    between atoms: _523  and  _524
REMARK  217  A    between atoms: _523  and  _526
REMARK  218  A    between atoms: _526  and  _527
REMARK  219  A    between atoms: _527  and  _528
REMARK  220  A    between atoms: _528  and  _529
REMARK  221  A    between atoms: _529  and  _530
REMARK  222  A    between atoms: _534  and  _536
REMARK  223  A    between atoms: _536  and  _537
REMARK  224  A    between atoms: _536  and  _539
REMARK  225  A    between atoms: _542  and  _544
REMARK  226  A    between atoms: _544  and  _545
REMARK  227  A    between atoms: _548  and  _550
REMARK  228  A    between atoms: _550  and  _551
REMARK  229  A    between atoms: _550  and  _553
REMARK  230  A    between atoms: _553  and  _554
REMARK  231  A    between atoms: _557  and  _559
REMARK  232  A    between atoms: _559  and  _560
REMARK  233  A    between atoms: _559  and  _562
REMARK  234  A    between atoms: _562  and  _563
REMARK  235  A    between atoms: _569  and  _571
REMARK  236  A    between atoms: _571  and  _572
REMARK  237  A    between atoms: _574  and  _576
REMARK  238  A    between atoms: _576  and  _577
REMARK  239  A    between atoms: _576  and  _579
REMARK  240  A    between atoms: _579  and  _580
REMARK  241  A    between atoms: _583  and  _585
REMARK  242  A    between atoms: _585  and  _586
REMARK  243  A    between atoms: _585  and  _588
REMARK  244  A    between atoms: _588  and  _589
REMARK                            x       y       z     vdW  Elec       q    Type
REMARK                         _______ _______ _______ _____ _____    ______ ____
ROOT
ATOM      1  CA  ASP A   4      16.868  13.333  21.529  0.00  0.00    +0.160 C 
ENDROOT
BRANCH   1   4
ATOM      2  C   ALA A   3      17.024  11.643  23.277  0.00  0.00    +0.241 C 
ATOM      3  O   ALA A   3      17.544  12.427  24.063  0.00  0.00    -0.273 OA
ATOM      4  N   ASP A   4      16.740  11.971  22.027  0.00  0.00    -0.297 N 
ATOM      5  H   ASP A   4      16.413  11.228  21.376  0.00  0.00    +0.150 HD
BRANCH   2   6
ATOM      6  CA  ALA A   3      16.694  10.203  23.684  0.00  0.00    +0.149 C 
ATOM      7  CB  ALA A   3      15.166   9.868  23.443  0.00  0.00    +0.031 C 
BRANCH   6   9
ATOM      8  C   VAL A   2      17.780   8.984  25.477  0.00  0.00    +0.241 C 
ATOM      9  N   ALA A   3      17.036  10.002  25.081  0.00  0.00    -0.297 N 
ATOM     10  H   ALA A   3      16.686  10.678  25.790  0.00  0.00    +0.150 HD
ATOM     11  O   VAL A   2      18.133   8.058  24.709  0.00  0.00    -0.273 OA
BRANCH   8  12
ATOM     12  CA  VAL A   2      18.135   8.984  26.967  0.00  0.00    +0.148 C 
BRANCH  12  15
ATOM     13  C   LYS A   1      16.687   7.206  27.763  0.00  0.00    +0.238 C 
ATOM     14  O   LYS A   1      15.644   7.861  27.626  0.00  0.00    -0.274 OA
ATOM     15  N   VAL A   2      17.899   7.680  27.523  0.00  0.00    -0.297 N 
ATOM     16  H   VAL A   2      18.719   7.081  27.747  0.00  0.00    +0.150 HD
BRANCH  13  17
ATOM     17  CA  LYS A   1      16.661   5.768  28.215  0.00  0.00    +0.145 C 
BRANCH  17  18
ATOM     18  N   LYS A   1      15.671   5.544  29.279  0.00  0.00    -0.238 NA
ATOM     19  H   LYS A   1      14.698   5.892  29.163  0.00  0.00    +0.142 HD
ENDBRANCH  17  18
BRANCH  17  20
ATOM     20  CB  LYS A   1      16.385   4.869  27.024  0.00  0.00    +0.026 C 
BRANCH  20  21
ATOM     21  CG  LYS A   1      16.298   3.377  27.377  0.00  0.00    -0.000 C 
BRANCH  21  22
ATOM     22  CD  LYS A   1      16.418   2.514  26.120  0.00  0.00    -0.024 C 
BRANCH  22  23
ATOM     23  CE  LYS A   1      16.181   1.042  26.426  0.00  0.00    -0.086 C 
BRANCH  23  24
ATOM     24  NZ  LYS A   1      16.498   0.202  25.251  0.00  0.00    +0.380 N 
ATOM     25  HZ1 LYS A   1      16.328  -0.797  25.485  0.00  0.00    -0.089 HD
ATOM     26  HZ2 LYS A   1      17.496   0.334  24.991  0.00  0.00    -0.089 HD
ATOM     27  HZ3 LYS A   1      15.891   0.481  24.453  0.00  0.00    -0.089 HD
ENDBRANCH  23  24
ENDBRANCH  22  23
ENDBRANCH  21  22
ENDBRANCH  20  21
ENDBRANCH  17  20
ENDBRANCH  13  17
ENDBRANCH  12  15
BRANCH  12  28
ATOM     28  CB  VAL A   2      19.590   9.400  27.171  0.00  0.00    +0.027 C 
ATOM     29  CG2 VAL A   2      19.863   9.603  28.667  0.00  0.00    +0.002 C 
ATOM     30  CG1 VAL A   2      19.902  10.675  26.366  0.00  0.00    +0.002 C 
ENDBRANCH  12  28
ENDBRANCH   8  12
ENDBRANCH   6   9
ENDBRANCH   2   6
ENDBRANCH   1   4
BRANCH   1  31
ATOM     31  C   ASP A   4      15.846  13.528  20.417  0.00  0.00    +0.241 C 
ATOM     32  N   PHE A   5      14.769  14.231  20.734  0.00  0.00    -0.297 N 
ATOM     33  H   PHE A   5      14.731  14.712  21.655  0.00  0.00    +0.150 HD
ATOM     34  O   ASP A   4      16.037  13.055  19.297  0.00  0.00    -0.273 OA
BRANCH  32  35
ATOM     35  CA  PHE A   5      13.639  14.347  19.826  0.00  0.00    +0.153 C 
BRANCH  35  36
ATOM     36  C   PHE A   5      13.836  15.466  18.859  0.00  0.00    +0.241 C 
ATOM     37  N   GLY A   6      14.893  16.246  19.091  0.00  0.00    -0.295 N 
ATOM     38  H   GLY A   6      15.440  16.086  19.961  0.00  0.00    +0.150 HD
ATOM     39  O   PHE A   5      13.064  15.599  17.907  0.00  0.00    -0.273 OA
BRANCH  37  40
ATOM     40  CA  GLY A   6      15.324  17.309  18.194  0.00  0.00    +0.176 C 
BRANCH  40  41
ATOM     41  C   GLY A   6      14.310  18.420  18.090  0.00  0.00    +0.243 C 
ATOM     42  N   LEU A   7      13.718  18.844  19.213  0.00  0.00    -0.298 N 
ATOM     43  H   LEU A   7      14.085  18.548  20.140  0.00  0.00    +0.150 HD
ATOM     44  O   GLY A   6      14.052  18.888  16.983  0.00  0.00    -0.273 OA
BRANCH  42  45
ATOM     45  CA  LEU A   7      12.537  19.738  19.132  0.00  0.00    +0.137 C 
BRANCH  45  46
ATOM     46  C   LEU A   7      12.667  21.168  19.721  0.00  0.00    +0.227 C 
ATOM     47  O   LEU A   7      11.719  21.691  20.325  0.00  0.00    -0.286 OA
ENDBRANCH  45  46
BRANCH  45  48
ATOM     48  CB  LEU A   7      11.280  19.022  19.653  0.00  0.00    +0.028 C 
BRANCH  48  49
ATOM     49  CG  LEU A   7      11.031  18.902  21.158  0.00  0.00    +0.002 C 
ATOM     50  CD2 LEU A   7      12.284  19.205  21.989  0.00  0.00    +0.000 C 
ATOM     51  CD1 LEU A   7      10.467  17.524  21.476  0.00  0.00    +0.000 C 
ENDBRANCH  48  49
ENDBRANCH  45  48
ENDBRANCH  42  45
ENDBRANCH  40  41
ENDBRANCH  37  40
ENDBRANCH  35  36
BRANCH  35  52
ATOM     52  CB  PHE A   5      12.351  14.532  20.610  0.00  0.00    +0.055 C 
BRANCH  52  53
ATOM     53  CG  PHE A   5      12.143  13.492  21.671  0.00  0.00    -0.020 A 
ATOM     54  CD2 PHE A   5      11.695  13.851  22.943  0.00  0.00    -0.004 A 
ATOM     55  CE2 PHE A   5      11.505  12.893  23.909  0.00  0.00    -0.000 A 
ATOM     56  CZ  PHE A   5      11.751  11.569  23.649  0.00  0.00    -0.000 A 
ATOM     57  CE1 PHE A   5      12.206  11.187  22.388  0.00  0.00    -0.000 A 
ATOM     58  CD1 PHE A   5      12.392  12.154  21.407  0.00  0.00    -0.004 A 
ENDBRANCH  52  53
ENDBRANCH  35  52
ENDBRANCH  32  35
ENDBRANCH   1  31
BRANCH   1  59
ATOM     59  CB  ASP A   4      18.279  13.608  21.023  0.00  0.00    +0.143 C 
BRANCH  59  60
ATOM     60  CG  ASP A   4      18.479  15.074  20.570  0.00  0.00    +0.367 C 
ATOM     61  OD2 ASP A   4      17.534  15.882  20.681  0.00  0.00    -0.246 OA
ATOM     62  OD1 ASP A   4      19.567  15.410  20.074  0.00  0.00    -0.246 OA
ENDBRANCH  59  60
ENDBRANCH   1  59
TORSDOF 26
REMARK  Name = ../refined-set-2016/3gvu/3gvu_pocket.pdb
REMARK  244 active torsions:
REMARK  status: ('A' for Active; 'I' for Inactive)
REMARK    1  A    between atoms: _1  and  _3
REMARK    2  A    between atoms: _3  and  _4
REMARK    3  A    between atoms: _3  and  _6
REMARK    4  A    between atoms: _6  and  _7
REMARK    5  A    between atoms: _10  and  _12
REMARK    6  A    between atoms: _12  and  _13
REMARK    7  A    between atoms: _15  and  _17
REMARK    8  A    between atoms: _17  and  _18
REMARK    9  A    between atoms: _17  and  _20
REMARK   10  A    between atoms: _20  and  _21
REMARK   11  A    between atoms: _21  and  _22
REMARK   12  A    between atoms: _27  and  _29
REMARK   13  A    between atoms: _29  and  _30
REMARK   14  A    between atoms: _29  and  _32
REMARK   15  A    between atoms: _32  and  _33
REMARK   16  A    between atoms: _38  and  _39
REMARK   17  A    between atoms: _41  and  _43
REMARK   18  A    between atoms: _43  and  _44
REMARK   19  A    between atoms: _46  and  _48
REMARK   20  A    between atoms: _48  and  _49
REMARK   21  A    between atoms: _48  and  _51
REMARK   22  A    between atoms: _51  and  _52
REMARK   23  A    between atoms: _52  and  _53
REMARK   24  A    between atoms: _56  and  _58
REMARK   25  A    between atoms: _58  and  _59
REMARK   26  A    between atoms: _58  and  _61
REMARK   27  A    between atoms: _64  and  _66
REMARK   28  A    between atoms: _66  and  _67
REMARK   29  A    between atoms: _66  and  _69
REMARK   30  A    between atoms: _69  and  _70
REMARK   31  A    between atoms: _75  and  _76
REMARK   32  A    between atoms: _78  and  _80
REMARK   33  A    between atoms: _80  and  _81
REMARK   34  A    between atoms: _80  and  _83
REMARK   35  A    between atoms: _86  and  _88
REMARK   36  A    between atoms: _88  and  _89
REMARK   37  A    between atoms: _88  and  _91
REMARK   38  A    between atoms: _91  and  _92
REMARK   39  A    between atoms: _95  and  _97
REMARK   40  A    between atoms: _97  and  _98
REMARK   41  A    between atoms: _97  and  _100
REMARK   42  A    between atoms: _103  and  _105
REMARK   43  A    between atoms: _105  and  _106
REMARK   44  A    between atoms: _109  and  _111
REMARK   45  A    between atoms: _111  and  _112
REMARK   46  A    between atoms: _111  and  _114
REMARK   47  A    between atoms: _117  and  _119
REMARK   48  A    between atoms: _119  and  _120
REMARK   49  A    between atoms: _119  and  _122
REMARK   50  A    between atoms: _122  and  _123
REMARK   51  A    between atoms: _123  and  _124
REMARK   52  A    between atoms: _124  and  _125
REMARK   53  A    between atoms: _125  and  _126
REMARK   54  A    between atoms: _130  and  _132
REMARK   55  A    between atoms: _132  and  _133
REMARK   56  A    between atoms: _132  and  _135
REMARK   57  A    between atoms: _135  and  _136
REMARK   58  A    between atoms: _139  and  _141
REMARK   59  A    between atoms: _141  and  _142
REMARK   60  A    between atoms: _141  and  _144
REMARK   61  A    between atoms: _144  and  _145
REMARK   62  A    between atoms: _145  and  _146
REMARK   63  A    between atoms: _149  and  _151
REMARK   64  A    between atoms: _151  and  _152
REMARK   65  A    between atoms: _151  and  _154
REMARK   66  A    between atoms: _154  and  _155
REMARK   67  A    between atoms: _161  and  _163
REMARK   68  A    between atoms: _163  and  _164
REMARK   69  A    between atoms: _163  and  _166
REMARK   70  A    between atoms: _166  and  _167
REMARK   71  A    between atoms: _167  and  _168
REMARK   72  A    between atoms: _168  and  _169
REMARK   73  A    between atoms: _169  and  _170
REMARK   74  A    between atoms: _174  and  _176
REMARK   75  A    between atoms: _176  and  _177
REMARK   76  A    between atoms: _176  and  _179
REMARK   77  A    between atoms: _179  and  _180
REMARK   78  A    between atoms: _180  and  _181
REMARK   79  A    between atoms: _184  and  _186
REMARK   80  A    between atoms: _186  and  _187
REMARK   81  A    between atoms: _190  and  _192
REMARK   82  A    between atoms: _192  and  _193
REMARK   83  A    between atoms: _192  and  _195
REMARK   84  A    between atoms: _198  and  _200
REMARK   85  A    between atoms: _200  and  _201
REMARK   86  A    between atoms: _200  and  _203
REMARK   87  A    between atoms: _203  and  _204
REMARK   88  A    between atoms: _204  and  _205
REMARK   89  A    between atoms: _207  and  _209
REMARK   90  A    between atoms: _209  and  _210
REMARK   91  A    between atoms: _209  and  _212
REMARK   92  A    between atoms: _212  and  _213
REMARK   93  A    between atoms: _213  and  _214
REMARK   94  A    between atoms: _214  and  _215
REMARK   95  A    between atoms: _215  and  _216
REMARK   96  A    between atoms: _220  and  _222
REMARK   97  A    between atoms: _222  and  _223
REMARK   98  A    between atoms: _222  and  _225
REMARK   99  A    between atoms: _225  and  _226
REMARK  100  A    between atoms: _229  and  _231
REMARK  101  A    between atoms: _231  and  _232
REMARK  102  A    between atoms: _231  and  _234
REMARK  103  A    between atoms: _234  and  _235
REMARK  104  A    between atoms: _238  and  _240
REMARK  105  A    between atoms: _240  and  _241
REMARK  106  A    between atoms: _240  and  _243
REMARK  107  A    between atoms: _246  and  _248
REMARK  108  A    between atoms: _248  and  _249
REMARK  109  A    between atoms: _248  and  _251
REMARK  110  A    between atoms: _251  and  _252
REMARK  111  A    between atoms: _252  and  _253
REMARK  112  A    between atoms: _258  and  _260
REMARK  113  A    between atoms: _260  and  _261
REMARK  114  A    between atoms: _260  and  _263
REMARK  115  A    between atoms: _263  and  _264
REMARK  116  A    between atoms: _267  and  _269
REMARK  117  A    between atoms: _269  and  _270
REMARK  118  A    between atoms: _269  and  _272
REMARK  119  A    between atoms: _272  and  _273
REMARK  120  A    between atoms: _276  and  _278
REMARK  121  A    between atoms: _278  and  _279
REMARK  122  A    between atoms: _281  and  _283
REMARK  123  A    between atoms: _283  and  _284
REMARK  124  A    between atoms: _283  and  _286
REMARK  125  A    between atoms: _286  and  _287
REMARK  126  A    between atoms: _292  and  _293
REMARK  127  A    between atoms: _295  and  _297
REMARK  128  A    between atoms: _297  and  _298
REMARK  129  A    between atoms: _297  and  _300
REMARK  130  A    between atoms: _300  and  _301
REMARK  131  A    between atoms: _304  and  _306
REMARK  132  A    between atoms: _306  and  _307
REMARK  133  A    between atoms: _306  and  _309
REMARK  134  A    between atoms: _312  and  _314
REMARK  135  A    between atoms: _314  and  _315
REMARK  136  A    between atoms: _314  and  _317
REMARK  137  A    between atoms: _317  and  _318
REMARK  138  A    between atoms: _321  and  _323
REMARK  139  A    between atoms: _323  and  _324
REMARK  140  A    between atoms: _323  and  _326
REMARK  141  A    between atoms: _326  and  _327
REMARK  142  A    between atoms: _327  and  _328
REMARK  143  A    between atoms: _331  and  _333
REMARK  144  A    between atoms: _333  and  _334
REMARK  145  A    between atoms: _333  and  _336
REMARK  146  A    between atoms: _336  and  _337
REMARK  147  A    between atoms: _342  and  _343
REMARK  148  A    between atoms: _345  and  _347
REMARK  149  A    between atoms: _347  and  _348
REMARK  150  A    between atoms: _347  and  _350
REMARK  151  A    between atoms: _350  and  _351
REMARK  152  A    between atoms: _351  and  _352
REMARK  153  A    between atoms: _355  and  _356
REMARK  154  A    between atoms: _361  and  _363
REMARK  155  A    between atoms: _363  and  _364
REMARK  156  A    between atoms: _363  and  _366
REMARK  157  A    between atoms: _366  and  _367
REMARK  158  A    between atoms: _372  and  _373
REMARK  159  A    between atoms: _375  and  _377
REMARK  160  A    between atoms: _377  and  _378
REMARK  161  A    between atoms: _380  and  _382
REMARK  162  A    between atoms: _382  and  _383
REMARK  163  A    between atoms: _382  and  _385
REMARK  164  A    between atoms: _385  and  _386
REMARK  165  A    between atoms: _391  and  _393
REMARK  166  A    between atoms: _393  and  _394
REMARK  167  A    between atoms: _393  and  _396
REMARK  168  A    between atoms: _396  and  _397
REMARK  169  A    between atoms: _400  and  _402
REMARK  170  A    between atoms: _402  and  _403
REMARK  171  A    between atoms: _402  and  _405
REMARK  172  A    between atoms: _405  and  _406
REMARK  173  A    between atoms: _411  and  _413
REMARK  174  A    between atoms: _413  and  _414
REMARK  175  A    between atoms: _413  and  _416
REMARK  176  A    between atoms: _416  and  _417
REMARK  177  A    between atoms: _423  and  _425
REMARK  178  A    between atoms: _425  and  _426
REMARK  179  A    between atoms: _425  and  _428
REMARK  180  A    between atoms: _428  and  _429
REMARK  181  A    between atoms: _432  and  _434
REMARK  182  A    between atoms: _434  and  _435
REMARK  183  A    between atoms: _434  and  _437
REMARK  184  A    between atoms: _437  and  _438
REMARK  185  A    between atoms: _443  and  _445
REMARK  186  A    between atoms: _445  and  _446
REMARK  187  A    between atoms: _445  and  _448
REMARK  188  A    between atoms: _448  and  _449
REMARK  189  A    between atoms: _449  and  _450
REMARK  190  A    between atoms: _450  and  _451
REMARK  191  A    between atoms: _460  and  _462
REMARK  192  A    between atoms: _462  and  _463
REMARK  193  A    between atoms: _462  and  _465
REMARK  194  A    between atoms: _465  and  _466
REMARK  195  A    between atoms: _469  and  _471
REMARK  196  A    between atoms: _471  and  _472
REMARK  197  A    between atoms: _471  and  _474
REMARK  198  A    between atoms: _474  and  _475
REMARK  199  A    between atoms: _475  and  _476
REMARK  200  A    between atoms: _476  and  _477
REMARK  201  A    between atoms: _486  and  _488
REMARK  202  A    between atoms: _488  and  _489
REMARK  203  A    between atoms: _488  and  _491
REMARK  204  A    between atoms: _491  and  _492
REMARK  205  A    between atoms: _497  and  _499
REMARK  206  A    between atoms: _499  and  _500
REMARK  207  A    between atoms: _499  and  _502
REMARK  208  A    between atoms: _504  and  _506
REMARK  209  A    between atoms: _506  and  _507
REMARK  210  A    between atoms: _506  and  _509
REMARK  211  A    between atoms: _509  and  _510
REMARK  212  A    between atoms: _513  and  _515
REMARK  213  A    between atoms: _515  and  _516
REMARK  214  A    between atoms: _515  and  _518
REMARK  215  A    between atoms: _521  and  _523
REMARK  216  A    between atoms: _523  and  _524
REMARK  217  A    between atoms: _523  and  _526
REMARK  218  A    between atoms: _526  and  _527
REMARK  219  A    between atoms: _527  and  _528
REMARK  220  A    between atoms: _528  and  _529
REMARK  221  A    between atoms: _529  and  _530
REMARK  222  A    between atoms: _534  and  _536
REMARK  223  A    between atoms: _536  and  _537
REMARK  224  A    between atoms: _536  and  _539
REMARK  225  A    between atoms: _542  and  _544
REMARK  226  A    between atoms: _544  and  _545
REMARK  227  A    between atoms: _548  and  _550
REMARK  228  A    between atoms: _550  and  _551
REMARK  229  A    between atoms: _550  and  _553
REMARK  230  A    between atoms: _553  and  _554
REMARK  231  A    between atoms: _557  and  _559
REMARK  232  A    between atoms: _559  and  _560
REMARK  233  A    between atoms: _559  and  _562
REMARK  234  A    between atoms: _562  and  _563
REMARK  235  A    between atoms: _569  and  _571
REMARK  236  A    between atoms: _571  and  _572
REMARK  237  A    between atoms: _574  and  _576
REMARK  238  A    between atoms: _576  and  _577
REMARK  239  A    between atoms: _576  and  _579
REMARK  240  A    between atoms: _579  and  _580
REMARK  241  A    between atoms: _583  and  _585
REMARK  242  A    between atoms: _585  and  _586
REMARK  243  A    between atoms: _585  and  _588
REMARK  244  A    between atoms: _588  and  _589
REMARK                            x       y       z     vdW  Elec       q    Type
REMARK                         _______ _______ _______ _____ _____    ______ ____
ROOT
ATOM      1  CA  ASP A   1      25.624  18.344  29.182  0.00  0.00    +0.144 C 
ENDROOT
BRANCH   1   2
ATOM      2  N   ASP A   1      26.563  19.441  28.931  0.00  0.00    -0.239 NA
ATOM      3  H   ASP A   1      27.412  19.278  28.352  0.00  0.00    +0.142 HD
ENDBRANCH   1   2
BRANCH   1   4
ATOM      4  C   ASP A   1      25.589  18.045  30.695  0.00  0.00    +0.225 C 
ATOM      5  O   ASP A   1      24.531  17.787  31.251  0.00  0.00    -0.287 OA
ENDBRANCH   1   4
BRANCH   1   6
ATOM      6  CB  ASP A   1      25.964  17.056  28.415  0.00  0.00    +0.139 C 
BRANCH   6   7
ATOM      7  CG  ASP A   1      25.642  17.108  26.904  0.00  0.00    +0.367 C 
ATOM      8  OD2 ASP A   1      24.851  17.941  26.390  0.00  0.00    -0.246 OA
ATOM      9  OD1 ASP A   1      26.217  16.253  26.206  0.00  0.00    -0.246 OA
ENDBRANCH   6   7
ENDBRANCH   1   6
TORSDOF 4
REMARK  Name = ../refined-set-2016/3gvu/3gvu_pocket.pdb
REMARK  244 active torsions:
REMARK  status: ('A' for Active; 'I' for Inactive)
REMARK    1  A    between atoms: _1  and  _3
REMARK    2  A    between atoms: _3  and  _4
REMARK    3  A    between atoms: _3  and  _6
REMARK    4  A    between atoms: _6  and  _7
REMARK    5  A    between atoms: _10  and  _12
REMARK    6  A    between atoms: _12  and  _13
REMARK    7  A    between atoms: _15  and  _17
REMARK    8  A    between atoms: _17  and  _18
REMARK    9  A    between atoms: _17  and  _20
REMARK   10  A    between atoms: _20  and  _21
REMARK   11  A    between atoms: _21  and  _22
REMARK   12  A    between atoms: _27  and  _29
REMARK   13  A    between atoms: _29  and  _30
REMARK   14  A    between atoms: _29  and  _32
REMARK   15  A    between atoms: _32  and  _33
REMARK   16  A    between atoms: _38  and  _39
REMARK   17  A    between atoms: _41  and  _43
REMARK   18  A    between atoms: _43  and  _44
REMARK   19  A    between atoms: _46  and  _48
REMARK   20  A    between atoms: _48  and  _49
REMARK   21  A    between atoms: _48  and  _51
REMARK   22  A    between atoms: _51  and  _52
REMARK   23  A    between atoms: _52  and  _53
REMARK   24  A    between atoms: _56  and  _58
REMARK   25  A    between atoms: _58  and  _59
REMARK   26  A    between atoms: _58  and  _61
REMARK   27  A    between atoms: _64  and  _66
REMARK   28  A    between atoms: _66  and  _67
REMARK   29  A    between atoms: _66  and  _69
REMARK   30  A    between atoms: _69  and  _70
REMARK   31  A    between atoms: _75  and  _76
REMARK   32  A    between atoms: _78  and  _80
REMARK   33  A    between atoms: _80  and  _81
REMARK   34  A    between atoms: _80  and  _83
REMARK   35  A    between atoms: _86  and  _88
REMARK   36  A    between atoms: _88  and  _89
REMARK   37  A    between atoms: _88  and  _91
REMARK   38  A    between atoms: _91  and  _92
REMARK   39  A    between atoms: _95  and  _97
REMARK   40  A    between atoms: _97  and  _98
REMARK   41  A    between atoms: _97  and  _100
REMARK   42  A    between atoms: _103  and  _105
REMARK   43  A    between atoms: _105  and  _106
REMARK   44  A    between atoms: _109  and  _111
REMARK   45  A    between atoms: _111  and  _112
REMARK   46  A    between atoms: _111  and  _114
REMARK   47  A    between atoms: _117  and  _119
REMARK   48  A    between atoms: _119  and  _120
REMARK   49  A    between atoms: _119  and  _122
REMARK   50  A    between atoms: _122  and  _123
REMARK   51  A    between atoms: _123  and  _124
REMARK   52  A    between atoms: _124  and  _125
REMARK   53  A    between atoms: _125  and  _126
REMARK   54  A    between atoms: _130  and  _132
REMARK   55  A    between atoms: _132  and  _133
REMARK   56  A    between atoms: _132  and  _135
REMARK   57  A    between atoms: _135  and  _136
REMARK   58  A    between atoms: _139  and  _141
REMARK   59  A    between atoms: _141  and  _142
REMARK   60  A    between atoms: _141  and  _144
REMARK   61  A    between atoms: _144  and  _145
REMARK   62  A    between atoms: _145  and  _146
REMARK   63  A    between atoms: _149  and  _151
REMARK   64  A    between atoms: _151  and  _152
REMARK   65  A    between atoms: _151  and  _154
REMARK   66  A    between atoms: _154  and  _155
REMARK   67  A    between atoms: _161  and  _163
REMARK   68  A    between atoms: _163  and  _164
REMARK   69  A    between atoms: _163  and  _166
REMARK   70  A    between atoms: _166  and  _167
REMARK   71  A    between atoms: _167  and  _168
REMARK   72  A    between atoms: _168  and  _169
REMARK   73  A    between atoms: _169  and  _170
REMARK   74  A    between atoms: _174  and  _176
REMARK   75  A    between atoms: _176  and  _177
REMARK   76  A    between atoms: _176  and  _179
REMARK   77  A    between atoms: _179  and  _180
REMARK   78  A    between atoms: _180  and  _181
REMARK   79  A    between atoms: _184  and  _186
REMARK   80  A    between atoms: _186  and  _187
REMARK   81  A    between atoms: _190  and  _192
REMARK   82  A    between atoms: _192  and  _193
REMARK   83  A    between atoms: _192  and  _195
REMARK   84  A    between atoms: _198  and  _200
REMARK   85  A    between atoms: _200  and  _201
REMARK   86  A    between atoms: _200  and  _203
REMARK   87  A    between atoms: _203  and  _204
REMARK   88  A    between atoms: _204  and  _205
REMARK   89  A    between atoms: _207  and  _209
REMARK   90  A    between atoms: _209  and  _210
REMARK   91  A    between atoms: _209  and  _212
REMARK   92  A    between atoms: _212  and  _213
REMARK   93  A    between atoms: _213  and  _214
REMARK   94  A    between atoms: _214  and  _215
REMARK   95  A    between atoms: _215  and  _216
REMARK   96  A    between atoms: _220  and  _222
REMARK   97  A    between atoms: _222  and  _223
REMARK   98  A    between atoms: _222  and  _225
REMARK   99  A    between atoms: _225  and  _226
REMARK  100  A    between atoms: _229  and  _231
REMARK  101  A    between atoms: _231  and  _232
REMARK  102  A    between atoms: _231  and  _234
REMARK  103  A    between atoms: _234  and  _235
REMARK  104  A    between atoms: _238  and  _240
REMARK  105  A    between atoms: _240  and  _241
REMARK  106  A    between atoms: _240  and  _243
REMARK  107  A    between atoms: _246  and  _248
REMARK  108  A    between atoms: _248  and  _249
REMARK  109  A    between atoms: _248  and  _251
REMARK  110  A    between atoms: _251  and  _252
REMARK  111  A    between atoms: _252  and  _253
REMARK  112  A    between atoms: _258  and  _260
REMARK  113  A    between atoms: _260  and  _261
REMARK  114  A    between atoms: _260  and  _263
REMARK  115  A    between atoms: _263  and  _264
REMARK  116  A    between atoms: _267  and  _269
REMARK  117  A    between atoms: _269  and  _270
REMARK  118  A    between atoms: _269  and  _272
REMARK  119  A    between atoms: _272  and  _273
REMARK  120  A    between atoms: _276  and  _278
REMARK  121  A    between atoms: _278  and  _279
REMARK  122  A    between atoms: _281  and  _283
REMARK  123  A    between atoms: _283  and  _284
REMARK  124  A    between atoms: _283  and  _286
REMARK  125  A    between atoms: _286  and  _287
REMARK  126  A    between atoms: _292  and  _293
REMARK  127  A    between atoms: _295  and  _297
REMARK  128  A    between atoms: _297  and  _298
REMARK  129  A    between atoms: _297  and  _300
REMARK  130  A    between atoms: _300  and  _301
REMARK  131  A    between atoms: _304  and  _306
REMARK  132  A    between atoms: _306  and  _307
REMARK  133  A    between atoms: _306  and  _309
REMARK  134  A    between atoms: _312  and  _314
REMARK  135  A    between atoms: _314  and  _315
REMARK  136  A    between atoms: _314  and  _317
REMARK  137  A    between atoms: _317  and  _318
REMARK  138  A    between atoms: _321  and  _323
REMARK  139  A    between atoms: _323  and  _324
REMARK  140  A    between atoms: _323  and  _326
REMARK  141  A    between atoms: _326  and  _327
REMARK  142  A    between atoms: _327  and  _328
REMARK  143  A    between atoms: _331  and  _333
REMARK  144  A    between atoms: _333  and  _334
REMARK  145  A    between atoms: _333  and  _336
REMARK  146  A    between atoms: _336  and  _337
REMARK  147  A    between atoms: _342  and  _343
REMARK  148  A    between atoms: _345  and  _347
REMARK  149  A    between atoms: _347  and  _348
REMARK  150  A    between atoms: _347  and  _350
REMARK  151  A    between atoms: _350  and  _351
REMARK  152  A    between atoms: _351  and  _352
REMARK  153  A    between atoms: _355  and  _356
REMARK  154  A    between atoms: _361  and  _363
REMARK  155  A    between atoms: _363  and  _364
REMARK  156  A    between atoms: _363  and  _366
REMARK  157  A    between atoms: _366  and  _367
REMARK  158  A    between atoms: _372  and  _373
REMARK  159  A    between atoms: _375  and  _377
REMARK  160  A    between atoms: _377  and  _378
REMARK  161  A    between atoms: _380  and  _382
REMARK  162  A    between atoms: _382  and  _383
REMARK  163  A    between atoms: _382  and  _385
REMARK  164  A    between atoms: _385  and  _386
REMARK  165  A    between atoms: _391  and  _393
REMARK  166  A    between atoms: _393  and  _394
REMARK  167  A    between atoms: _393  and  _396
REMARK  168  A    between atoms: _396  and  _397
REMARK  169  A    between atoms: _400  and  _402
REMARK  170  A    between atoms: _402  and  _403
REMARK  171  A    between atoms: _402  and  _405
REMARK  172  A    between atoms: _405  and  _406
REMARK  173  A    between atoms: _411  and  _413
REMARK  174  A    between atoms: _413  and  _414
REMARK  175  A    between atoms: _413  and  _416
REMARK  176  A    between atoms: _416  and  _417
REMARK  177  A    between atoms: _423  and  _425
REMARK  178  A    between atoms: _425  and  _426
REMARK  179  A    between atoms: _425  and  _428
REMARK  180  A    between atoms: _428  and  _429
REMARK  181  A    between atoms: _432  and  _434
REMARK  182  A    between atoms: _434  and  _435
REMARK  183  A    between atoms: _434  and  _437
REMARK  184  A    between atoms: _437  and  _438
REMARK  185  A    between atoms: _443  and  _445
REMARK  186  A    between atoms: _445  and  _446
REMARK  187  A    between atoms: _445  and  _448
REMARK  188  A    between atoms: _448  and  _449
REMARK  189  A    between atoms: _449  and  _450
REMARK  190  A    between atoms: _450  and  _451
REMARK  191  A    between atoms: _460  and  _462
REMARK  192  A    between atoms: _462  and  _463
REMARK  193  A    between atoms: _462  and  _465
REMARK  194  A    between atoms: _465  and  _466
REMARK  195  A    between atoms: _469  and  _471
REMARK  196  A    between atoms: _471  and  _472
REMARK  197  A    between atoms: _471  and  _474
REMARK  198  A    between atoms: _474  and  _475
REMARK  199  A    between atoms: _475  and  _476
REMARK  200  A    between atoms: _476  and  _477
REMARK  201  A    between atoms: _486  and  _488
REMARK  202  A    between atoms: _488  and  _489
REMARK  203  A    between atoms: _488  and  _491
REMARK  204  A    between atoms: _491  and  _492
REMARK  205  A    between atoms: _497  and  _499
REMARK  206  A    between atoms: _499  and  _500
REMARK  207  A    between atoms: _499  and  _502
REMARK  208  A    between atoms: _504  and  _506
REMARK  209  A    between atoms: _506  and  _507
REMARK  210  A    between atoms: _506  and  _509
REMARK  211  A    between atoms: _509  and  _510
REMARK  212  A    between atoms: _513  and  _515
REMARK  213  A    between atoms: _515  and  _516
REMARK  214  A    between atoms: _515  and  _518
REMARK  215  A    between atoms: _521  and  _523
REMARK  216  A    between atoms: _523  and  _524
REMARK  217  A    between atoms: _523  and  _526
REMARK  218  A    between atoms: _526  and  _527
REMARK  219  A    between atoms: _527  and  _528
REMARK  220  A    between atoms: _528  and  _529
REMARK  221  A    between atoms: _529  and  _530
REMARK  222  A    between atoms: _534  and  _536
REMARK  223  A    between atoms: _536  and  _537
REMARK  224  A    between atoms: _536  and  _539
REMARK  225  A    between atoms: _542  and  _544
REMARK  226  A    between atoms: _544  and  _545
REMARK  227  A    between atoms: _548  and  _550
REMARK  228  A    between atoms: _550  and  _551
REMARK  229  A    between atoms: _550  and  _553
REMARK  230  A    between atoms: _553  and  _554
REMARK  231  A    between atoms: _557  and  _559
REMARK  232  A    between atoms: _559  and  _560
REMARK  233  A    between atoms: _559  and  _562
REMARK  234  A    between atoms: _562  and  _563
REMARK  235  A    between atoms: _569  and  _571
REMARK  236  A    between atoms: _571  and  _572
REMARK  237  A    between atoms: _574  and  _576
REMARK  238  A    between atoms: _576  and  _577
REMARK  239  A    between atoms: _576  and  _579
REMARK  240  A    between atoms: _579  and  _580
REMARK  241  A    between atoms: _583  and  _585
REMARK  242  A    between atoms: _585  and  _586
REMARK  243  A    between atoms: _585  and  _588
REMARK  244  A    between atoms: _588  and  _589
REMARK                            x       y       z     vdW  Elec       q    Type
REMARK                         _______ _______ _______ _____ _____    ______ ____
ROOT
ATOM      1  O   HOH     1      14.926  12.629  16.972  0.00  0.00    +0.000 OA
ENDROOT
TORSDOF 0
REMARK  Name = ../refined-set-2016/3gvu/3gvu_pocket.pdb
REMARK  244 active torsions:
REMARK  status: ('A' for Active; 'I' for Inactive)
REMARK    1  A    between atoms: _1  and  _3
REMARK    2  A    between atoms: _3  and  _4
REMARK    3  A    between atoms: _3  and  _6
REMARK    4  A    between atoms: _6  and  _7
REMARK    5  A    between atoms: _10  and  _12
REMARK    6  A    between atoms: _12  and  _13
REMARK    7  A    between atoms: _15  and  _17
REMARK    8  A    between atoms: _17  and  _18
REMARK    9  A    between atoms: _17  and  _20
REMARK   10  A    between atoms: _20  and  _21
REMARK   11  A    between atoms: _21  and  _22
REMARK   12  A    between atoms: _27  and  _29
REMARK   13  A    between atoms: _29  and  _30
REMARK   14  A    between atoms: _29  and  _32
REMARK   15  A    between atoms: _32  and  _33
REMARK   16  A    between atoms: _38  and  _39
REMARK   17  A    between atoms: _41  and  _43
REMARK   18  A    between atoms: _43  and  _44
REMARK   19  A    between atoms: _46  and  _48
REMARK   20  A    between atoms: _48  and  _49
REMARK   21  A    between atoms: _48  and  _51
REMARK   22  A    between atoms: _51  and  _52
REMARK   23  A    between atoms: _52  and  _53
REMARK   24  A    between atoms: _56  and  _58
REMARK   25  A    between atoms: _58  and  _59
REMARK   26  A    between atoms: _58  and  _61
REMARK   27  A    between atoms: _64  and  _66
REMARK   28  A    between atoms: _66  and  _67
REMARK   29  A    between atoms: _66  and  _69
REMARK   30  A    between atoms: _69  and  _70
REMARK   31  A    between atoms: _75  and  _76
REMARK   32  A    between atoms: _78  and  _80
REMARK   33  A    between atoms: _80  and  _81
REMARK   34  A    between atoms: _80  and  _83
REMARK   35  A    between atoms: _86  and  _88
REMARK   36  A    between atoms: _88  and  _89
REMARK   37  A    between atoms: _88  and  _91
REMARK   38  A    between atoms: _91  and  _92
REMARK   39  A    between atoms: _95  and  _97
REMARK   40  A    between atoms: _97  and  _98
REMARK   41  A    between atoms: _97  and  _100
REMARK   42  A    between atoms: _103  and  _105
REMARK   43  A    between atoms: _105  and  _106
REMARK   44  A    between atoms: _109  and  _111
REMARK   45  A    between atoms: _111  and  _112
REMARK   46  A    between atoms: _111  and  _114
REMARK   47  A    between atoms: _117  and  _119
REMARK   48  A    between atoms: _119  and  _120
REMARK   49  A    between atoms: _119  and  _122
REMARK   50  A    between atoms: _122  and  _123
REMARK   51  A    between atoms: _123  and  _124
REMARK   52  A    between atoms: _124  and  _125
REMARK   53  A    between atoms: _125  and  _126
REMARK   54  A    between atoms: _130  and  _132
REMARK   55  A    between atoms: _132  and  _133
REMARK   56  A    between atoms: _132  and  _135
REMARK   57  A    between atoms: _135  and  _136
REMARK   58  A    between atoms: _139  and  _141
REMARK   59  A    between atoms: _141  and  _142
REMARK   60  A    between atoms: _141  and  _144
REMARK   61  A    between atoms: _144  and  _145
REMARK   62  A    between atoms: _145  and  _146
REMARK   63  A    between atoms: _149  and  _151
REMARK   64  A    between atoms: _151  and  _152
REMARK   65  A    between atoms: _151  and  _154
REMARK   66  A    between atoms: _154  and  _155
REMARK   67  A    between atoms: _161  and  _163
REMARK   68  A    between atoms: _163  and  _164
REMARK   69  A    between atoms: _163  and  _166
REMARK   70  A    between atoms: _166  and  _167
REMARK   71  A    between atoms: _167  and  _168
REMARK   72  A    between atoms: _168  and  _169
REMARK   73  A    between atoms: _169  and  _170
REMARK   74  A    between atoms: _174  and  _176
REMARK   75  A    between atoms: _176  and  _177
REMARK   76  A    between atoms: _176  and  _179
REMARK   77  A    between atoms: _179  and  _180
REMARK   78  A    between atoms: _180  and  _181
REMARK   79  A    between atoms: _184  and  _186
REMARK   80  A    between atoms: _186  and  _187
REMARK   81  A    between atoms: _190  and  _192
REMARK   82  A    between atoms: _192  and  _193
REMARK   83  A    between atoms: _192  and  _195
REMARK   84  A    between atoms: _198  and  _200
REMARK   85  A    between atoms: _200  and  _201
REMARK   86  A    between atoms: _200  and  _203
REMARK   87  A    between atoms: _203  and  _204
REMARK   88  A    between atoms: _204  and  _205
REMARK   89  A    between atoms: _207  and  _209
REMARK   90  A    between atoms: _209  and  _210
REMARK   91  A    between atoms: _209  and  _212
REMARK   92  A    between atoms: _212  and  _213
REMARK   93  A    between atoms: _213  and  _214
REMARK   94  A    between atoms: _214  and  _215
REMARK   95  A    between atoms: _215  and  _216
REMARK   96  A    between atoms: _220  and  _222
REMARK   97  A    between atoms: _222  and  _223
REMARK   98  A    between atoms: _222  and  _225
REMARK   99  A    between atoms: _225  and  _226
REMARK  100  A    between atoms: _229  and  _231
REMARK  101  A    between atoms: _231  and  _232
REMARK  102  A    between atoms: _231  and  _234
REMARK  103  A    between atoms: _234  and  _235
REMARK  104  A    between atoms: _238  and  _240
REMARK  105  A    between atoms: _240  and  _241
REMARK  106  A    between atoms: _240  and  _243
REMARK  107  A    between atoms: _246  and  _248
REMARK  108  A    between atoms: _248  and  _249
REMARK  109  A    between atoms: _248  and  _251
REMARK  110  A    between atoms: _251  and  _252
REMARK  111  A    between atoms: _252  and  _253
REMARK  112  A    between atoms: _258  and  _260
REMARK  113  A    between atoms: _260  and  _261
REMARK  114  A    between atoms: _260  and  _263
REMARK  115  A    between atoms: _263  and  _264
REMARK  116  A    between atoms: _267  and  _269
REMARK  117  A    between atoms: _269  and  _270
REMARK  118  A    between atoms: _269  and  _272
REMARK  119  A    between atoms: _272  and  _273
REMARK  120  A    between atoms: _276  and  _278
REMARK  121  A    between atoms: _278  and  _279
REMARK  122  A    between atoms: _281  and  _283
REMARK  123  A    between atoms: _283  and  _284
REMARK  124  A    between atoms: _283  and  _286
REMARK  125  A    between atoms: _286  and  _287
REMARK  126  A    between atoms: _292  and  _293
REMARK  127  A    between atoms: _295  and  _297
REMARK  128  A    between atoms: _297  and  _298
REMARK  129  A    between atoms: _297  and  _300
REMARK  130  A    between atoms: _300  and  _301
REMARK  131  A    between atoms: _304  and  _306
REMARK  132  A    between atoms: _306  and  _307
REMARK  133  A    between atoms: _306  and  _309
REMARK  134  A    between atoms: _312  and  _314
REMARK  135  A    between atoms: _314  and  _315
REMARK  136  A    between atoms: _314  and  _317
REMARK  137  A    between atoms: _317  and  _318
REMARK  138  A    between atoms: _321  and  _323
REMARK  139  A    between atoms: _323  and  _324
REMARK  140  A    between atoms: _323  and  _326
REMARK  141  A    between atoms: _326  and  _327
REMARK  142  A    between atoms: _327  and  _328
REMARK  143  A    between atoms: _331  and  _333
REMARK  144  A    between atoms: _333  and  _334
REMARK  145  A    between atoms: _333  and  _336
REMARK  146  A    between atoms: _336  and  _337
REMARK  147  A    between atoms: _342  and  _343
REMARK  148  A    between atoms: _345  and  _347
REMARK  149  A    between atoms: _347  and  _348
REMARK  150  A    between atoms: _347  and  _350
REMARK  151  A    between atoms: _350  and  _351
REMARK  152  A    between atoms: _351  and  _352
REMARK  153  A    between atoms: _355  and  _356
REMARK  154  A    between atoms: _361  and  _363
REMARK  155  A    between atoms: _363  and  _364
REMARK  156  A    between atoms: _363  and  _366
REMARK  157  A    between atoms: _366  and  _367
REMARK  158  A    between atoms: _372  and  _373
REMARK  159  A    between atoms: _375  and  _377
REMARK  160  A    between atoms: _377  and  _378
REMARK  161  A    between atoms: _380  and  _382
REMARK  162  A    between atoms: _382  and  _383
REMARK  163  A    between atoms: _382  and  _385
REMARK  164  A    between atoms: _385  and  _386
REMARK  165  A    between atoms: _391  and  _393
REMARK  166  A    between atoms: _393  and  _394
REMARK  167  A    between atoms: _393  and  _396
REMARK  168  A    between atoms: _396  and  _397
REMARK  169  A    between atoms: _400  and  _402
REMARK  170  A    between atoms: _402  and  _403
REMARK  171  A    between atoms: _402  and  _405
REMARK  172  A    between atoms: _405  and  _406
REMARK  173  A    between atoms: _411  and  _413
REMARK  174  A    between atoms: _413  and  _414
REMARK  175  A    between atoms: _413  and  _416
REMARK  176  A    between atoms: _416  and  _417
REMARK  177  A    between atoms: _423  and  _425
REMARK  178  A    between atoms: _425  and  _426
REMARK  179  A    between atoms: _425  and  _428
REMARK  180  A    between atoms: _428  and  _429
REMARK  181  A    between atoms: _432  and  _434
REMARK  182  A    between atoms: _434  and  _435
REMARK  183  A    between atoms: _434  and  _437
REMARK  184  A    between atoms: _437  and  _438
REMARK  185  A    between atoms: _443  and  _445
REMARK  186  A    between atoms: _445  and  _446
REMARK  187  A    between atoms: _445  and  _448
REMARK  188  A    between atoms: _448  and  _449
REMARK  189  A    between atoms: _449  and  _450
REMARK  190  A    between atoms: _450  and  _451
REMARK  191  A    between atoms: _460  and  _462
REMARK  192  A    between atoms: _462  and  _463
REMARK  193  A    between atoms: _462  and  _465
REMARK  194  A    between atoms: _465  and  _466
REMARK  195  A    between atoms: _469  and  _471
REMARK  196  A    between atoms: _471  and  _472
REMARK  197  A    between atoms: _471  and  _474
REMARK  198  A    between atoms: _474  and  _475
REMARK  199  A    between atoms: _475  and  _476
REMARK  200  A    between atoms: _476  and  _477
REMARK  201  A    between atoms: _486  and  _488
REMARK  202  A    between atoms: _488  and  _489
REMARK  203  A    between atoms: _488  and  _491
REMARK  204  A    between atoms: _491  and  _492
REMARK  205  A    between atoms: _497  and  _499
REMARK  206  A    between atoms: _499  and  _500
REMARK  207  A    between atoms: _499  and  _502
REMARK  208  A    between atoms: _504  and  _506
REMARK  209  A    between atoms: _506  and  _507
REMARK  210  A    between atoms: _506  and  _509
REMARK  211  A    between atoms: _509  and  _510
REMARK  212  A    between atoms: _513  and  _515
REMARK  213  A    between atoms: _515  and  _516
REMARK  214  A    between atoms: _515  and  _518
REMARK  215  A    between atoms: _521  and  _523
REMARK  216  A    between atoms: _523  and  _524
REMARK  217  A    between atoms: _523  and  _526
REMARK  218  A    between atoms: _526  and  _527
REMARK  219  A    between atoms: _527  and  _528
REMARK  220  A    between atoms: _528  and  _529
REMARK  221  A    between atoms: _529  and  _530
REMARK  222  A    between atoms: _534  and  _536
REMARK  223  A    between atoms: _536  and  _537
REMARK  224  A    between atoms: _536  and  _539
REMARK  225  A    between atoms: _542  and  _544
REMARK  226  A    between atoms: _544  and  _545
REMARK  227  A    between atoms: _548  and  _550
REMARK  228  A    between atoms: _550  and  _551
REMARK  229  A    between atoms: _550  and  _553
REMARK  230  A    between atoms: _553  and  _554
REMARK  231  A    between atoms: _557  and  _559
REMARK  232  A    between atoms: _559  and  _560
REMARK  233  A    between atoms: _559  and  _562
REMARK  234  A    between atoms: _562  and  _563
REMARK  235  A    between atoms: _569  and  _571
REMARK  236  A    between atoms: _571  and  _572
REMARK  237  A    between atoms: _574  and  _576
REMARK  238  A    between atoms: _576  and  _577
REMARK  239  A    between atoms: _576  and  _579
REMARK  240  A    between atoms: _579  and  _580
REMARK  241  A    between atoms: _583  and  _585
REMARK  242  A    between atoms: _585  and  _586
REMARK  243  A    between atoms: _585  and  _588
REMARK  244  A    between atoms: _588  and  _589
REMARK                            x       y       z     vdW  Elec       q    Type
REMARK                         _______ _______ _______ _____ _____    ______ ____
ROOT
ATOM      1  O   HOH     1       2.542  10.130  23.519  0.00  0.00    +0.000 OA
ENDROOT
TORSDOF 0
REMARK  Name = ../refined-set-2016/3gvu/3gvu_pocket.pdb
REMARK  244 active torsions:
REMARK  status: ('A' for Active; 'I' for Inactive)
REMARK    1  A    between atoms: _1  and  _3
REMARK    2  A    between atoms: _3  and  _4
REMARK    3  A    between atoms: _3  and  _6
REMARK    4  A    between atoms: _6  and  _7
REMARK    5  A    between atoms: _10  and  _12
REMARK    6  A    between atoms: _12  and  _13
REMARK    7  A    between atoms: _15  and  _17
REMARK    8  A    between atoms: _17  and  _18
REMARK    9  A    between atoms: _17  and  _20
REMARK   10  A    between atoms: _20  and  _21
REMARK   11  A    between atoms: _21  and  _22
REMARK   12  A    between atoms: _27  and  _29
REMARK   13  A    between atoms: _29  and  _30
REMARK   14  A    between atoms: _29  and  _32
REMARK   15  A    between atoms: _32  and  _33
REMARK   16  A    between atoms: _38  and  _39
REMARK   17  A    between atoms: _41  and  _43
REMARK   18  A    between atoms: _43  and  _44
REMARK   19  A    between atoms: _46  and  _48
REMARK   20  A    between atoms: _48  and  _49
REMARK   21  A    between atoms: _48  and  _51
REMARK   22  A    between atoms: _51  and  _52
REMARK   23  A    between atoms: _52  and  _53
REMARK   24  A    between atoms: _56  and  _58
REMARK   25  A    between atoms: _58  and  _59
REMARK   26  A    between atoms: _58  and  _61
REMARK   27  A    between atoms: _64  and  _66
REMARK   28  A    between atoms: _66  and  _67
REMARK   29  A    between atoms: _66  and  _69
REMARK   30  A    between atoms: _69  and  _70
REMARK   31  A    between atoms: _75  and  _76
REMARK   32  A    between atoms: _78  and  _80
REMARK   33  A    between atoms: _80  and  _81
REMARK   34  A    between atoms: _80  and  _83
REMARK   35  A    between atoms: _86  and  _88
REMARK   36  A    between atoms: _88  and  _89
REMARK   37  A    between atoms: _88  and  _91
REMARK   38  A    between atoms: _91  and  _92
REMARK   39  A    between atoms: _95  and  _97
REMARK   40  A    between atoms: _97  and  _98
REMARK   41  A    between atoms: _97  and  _100
REMARK   42  A    between atoms: _103  and  _105
REMARK   43  A    between atoms: _105  and  _106
REMARK   44  A    between atoms: _109  and  _111
REMARK   45  A    between atoms: _111  and  _112
REMARK   46  A    between atoms: _111  and  _114
REMARK   47  A    between atoms: _117  and  _119
REMARK   48  A    between atoms: _119  and  _120
REMARK   49  A    between atoms: _119  and  _122
REMARK   50  A    between atoms: _122  and  _123
REMARK   51  A    between atoms: _123  and  _124
REMARK   52  A    between atoms: _124  and  _125
REMARK   53  A    between atoms: _125  and  _126
REMARK   54  A    between atoms: _130  and  _132
REMARK   55  A    between atoms: _132  and  _133
REMARK   56  A    between atoms: _132  and  _135
REMARK   57  A    between atoms: _135  and  _136
REMARK   58  A    between atoms: _139  and  _141
REMARK   59  A    between atoms: _141  and  _142
REMARK   60  A    between atoms: _141  and  _144
REMARK   61  A    between atoms: _144  and  _145
REMARK   62  A    between atoms: _145  and  _146
REMARK   63  A    between atoms: _149  and  _151
REMARK   64  A    between atoms: _151  and  _152
REMARK   65  A    between atoms: _151  and  _154
REMARK   66  A    between atoms: _154  and  _155
REMARK   67  A    between atoms: _161  and  _163
REMARK   68  A    between atoms: _163  and  _164
REMARK   69  A    between atoms: _163  and  _166
REMARK   70  A    between atoms: _166  and  _167
REMARK   71  A    between atoms: _167  and  _168
REMARK   72  A    between atoms: _168  and  _169
REMARK   73  A    between atoms: _169  and  _170
REMARK   74  A    between atoms: _174  and  _176
REMARK   75  A    between atoms: _176  and  _177
REMARK   76  A    between atoms: _176  and  _179
REMARK   77  A    between atoms: _179  and  _180
REMARK   78  A    between atoms: _180  and  _181
REMARK   79  A    between atoms: _184  and  _186
REMARK   80  A    between atoms: _186  and  _187
REMARK   81  A    between atoms: _190  and  _192
REMARK   82  A    between atoms: _192  and  _193
REMARK   83  A    between atoms: _192  and  _195
REMARK   84  A    between atoms: _198  and  _200
REMARK   85  A    between atoms: _200  and  _201
REMARK   86  A    between atoms: _200  and  _203
REMARK   87  A    between atoms: _203  and  _204
REMARK   88  A    between atoms: _204  and  _205
REMARK   89  A    between atoms: _207  and  _209
REMARK   90  A    between atoms: _209  and  _210
REMARK   91  A    between atoms: _209  and  _212
REMARK   92  A    between atoms: _212  and  _213
REMARK   93  A    between atoms: _213  and  _214
REMARK   94  A    between atoms: _214  and  _215
REMARK   95  A    between atoms: _215  and  _216
REMARK   96  A    between atoms: _220  and  _222
REMARK   97  A    between atoms: _222  and  _223
REMARK   98  A    between atoms: _222  and  _225
REMARK   99  A    between atoms: _225  and  _226
REMARK  100  A    between atoms: _229  and  _231
REMARK  101  A    between atoms: _231  and  _232
REMARK  102  A    between atoms: _231  and  _234
REMARK  103  A    between atoms: _234  and  _235
REMARK  104  A    between atoms: _238  and  _240
REMARK  105  A    between atoms: _240  and  _241
REMARK  106  A    between atoms: _240  and  _243
REMARK  107  A    between atoms: _246  and  _248
REMARK  108  A    between atoms: _248  and  _249
REMARK  109  A    between atoms: _248  and  _251
REMARK  110  A    between atoms: _251  and  _252
REMARK  111  A    between atoms: _252  and  _253
REMARK  112  A    between atoms: _258  and  _260
REMARK  113  A    between atoms: _260  and  _261
REMARK  114  A    between atoms: _260  and  _263
REMARK  115  A    between atoms: _263  and  _264
REMARK  116  A    between atoms: _267  and  _269
REMARK  117  A    between atoms: _269  and  _270
REMARK  118  A    between atoms: _269  and  _272
REMARK  119  A    between atoms: _272  and  _273
REMARK  120  A    between atoms: _276  and  _278
REMARK  121  A    between atoms: _278  and  _279
REMARK  122  A    between atoms: _281  and  _283
REMARK  123  A    between atoms: _283  and  _284
REMARK  124  A    between atoms: _283  and  _286
REMARK  125  A    between atoms: _286  and  _287
REMARK  126  A    between atoms: _292  and  _293
REMARK  127  A    between atoms: _295  and  _297
REMARK  128  A    between atoms: _297  and  _298
REMARK  129  A    between atoms: _297  and  _300
REMARK  130  A    between atoms: _300  and  _301
REMARK  131  A    between atoms: _304  and  _306
REMARK  132  A    between atoms: _306  and  _307
REMARK  133  A    between atoms: _306  and  _309
REMARK  134  A    between atoms: _312  and  _314
REMARK  135  A    between atoms: _314  and  _315
REMARK  136  A    between atoms: _314  and  _317
REMARK  137  A    between atoms: _317  and  _318
REMARK  138  A    between atoms: _321  and  _323
REMARK  139  A    between atoms: _323  and  _324
REMARK  140  A    between atoms: _323  and  _326
REMARK  141  A    between atoms: _326  and  _327
REMARK  142  A    between atoms: _327  and  _328
REMARK  143  A    between atoms: _331  and  _333
REMARK  144  A    between atoms: _333  and  _334
REMARK  145  A    between atoms: _333  and  _336
REMARK  146  A    between atoms: _336  and  _337
REMARK  147  A    between atoms: _342  and  _343
REMARK  148  A    between atoms: _345  and  _347
REMARK  149  A    between atoms: _347  and  _348
REMARK  150  A    between atoms: _347  and  _350
REMARK  151  A    between atoms: _350  and  _351
REMARK  152  A    between atoms: _351  and  _352
REMARK  153  A    between atoms: _355  and  _356
REMARK  154  A    between atoms: _361  and  _363
REMARK  155  A    between atoms: _363  and  _364
REMARK  156  A    between atoms: _363  and  _366
REMARK  157  A    between atoms: _366  and  _367
REMARK  158  A    between atoms: _372  and  _373
REMARK  159  A    between atoms: _375  and  _377
REMARK  160  A    between atoms: _377  and  _378
REMARK  161  A    between atoms: _380  and  _382
REMARK  162  A    between atoms: _382  and  _383
REMARK  163  A    between atoms: _382  and  _385
REMARK  164  A    between atoms: _385  and  _386
REMARK  165  A    between atoms: _391  and  _393
REMARK  166  A    between atoms: _393  and  _394
REMARK  167  A    between atoms: _393  and  _396
REMARK  168  A    between atoms: _396  and  _397
REMARK  169  A    between atoms: _400  and  _402
REMARK  170  A    between atoms: _402  and  _403
REMARK  171  A    between atoms: _402  and  _405
REMARK  172  A    between atoms: _405  and  _406
REMARK  173  A    between atoms: _411  and  _413
REMARK  174  A    between atoms: _413  and  _414
REMARK  175  A    between atoms: _413  and  _416
REMARK  176  A    between atoms: _416  and  _417
REMARK  177  A    between atoms: _423  and  _425
REMARK  178  A    between atoms: _425  and  _426
REMARK  179  A    between atoms: _425  and  _428
REMARK  180  A    between atoms: _428  and  _429
REMARK  181  A    between atoms: _432  and  _434
REMARK  182  A    between atoms: _434  and  _435
REMARK  183  A    between atoms: _434  and  _437
REMARK  184  A    between atoms: _437  and  _438
REMARK  185  A    between atoms: _443  and  _445
REMARK  186  A    between atoms: _445  and  _446
REMARK  187  A    between atoms: _445  and  _448
REMARK  188  A    between atoms: _448  and  _449
REMARK  189  A    between atoms: _449  and  _450
REMARK  190  A    between atoms: _450  and  _451
REMARK  191  A    between atoms: _460  and  _462
REMARK  192  A    between atoms: _462  and  _463
REMARK  193  A    between atoms: _462  and  _465
REMARK  194  A    between atoms: _465  and  _466
REMARK  195  A    between atoms: _469  and  _471
REMARK  196  A    between atoms: _471  and  _472
REMARK  197  A    between atoms: _471  and  _474
REMARK  198  A    between atoms: _474  and  _475
REMARK  199  A    between atoms: _475  and  _476
REMARK  200  A    between atoms: _476  and  _477
REMARK  201  A    between atoms: _486  and  _488
REMARK  202  A    between atoms: _488  and  _489
REMARK  203  A    between atoms: _488  and  _491
REMARK  204  A    between atoms: _491  and  _492
REMARK  205  A    between atoms: _497  and  _499
REMARK  206  A    between atoms: _499  and  _500
REMARK  207  A    between atoms: _499  and  _502
REMARK  208  A    between atoms: _504  and  _506
REMARK  209  A    between atoms: _506  and  _507
REMARK  210  A    between atoms: _506  and  _509
REMARK  211  A    between atoms: _509  and  _510
REMARK  212  A    between atoms: _513  and  _515
REMARK  213  A    between atoms: _515  and  _516
REMARK  214  A    between atoms: _515  and  _518
REMARK  215  A    between atoms: _521  and  _523
REMARK  216  A    between atoms: _523  and  _524
REMARK  217  A    between atoms: _523  and  _526
REMARK  218  A    between atoms: _526  and  _527
REMARK  219  A    between atoms: _527  and  _528
REMARK  220  A    between atoms: _528  and  _529
REMARK  221  A    between atoms: _529  and  _530
REMARK  222  A    between atoms: _534  and  _536
REMARK  223  A    between atoms: _536  and  _537
REMARK  224  A    between atoms: _536  and  _539
REMARK  225  A    between atoms: _542  and  _544
REMARK  226  A    between atoms: _544  and  _545
REMARK  227  A    between atoms: _548  and  _550
REMARK  228  A    between atoms: _550  and  _551
REMARK  229  A    between atoms: _550  and  _553
REMARK  230  A    between atoms: _553  and  _554
REMARK  231  A    between atoms: _557  and  _559
REMARK  232  A    between atoms: _559  and  _560
REMARK  233  A    between atoms: _559  and  _562
REMARK  234  A    between atoms: _562  and  _563
REMARK  235  A    between atoms: _569  and  _571
REMARK  236  A    between atoms: _571  and  _572
REMARK  237  A    between atoms: _574  and  _576
REMARK  238  A    between atoms: _576  and  _577
REMARK  239  A    between atoms: _576  and  _579
REMARK  240  A    between atoms: _579  and  _580
REMARK  241  A    between atoms: _583  and  _585
REMARK  242  A    between atoms: _585  and  _586
REMARK  243  A    between atoms: _585  and  _588
REMARK  244  A    between atoms: _588  and  _589
REMARK                            x       y       z     vdW  Elec       q    Type
REMARK                         _______ _______ _______ _____ _____    ______ ____
ROOT
ATOM      1  O   HOH     1      20.424  17.706  20.827  0.00  0.00    +0.000 OA
ENDROOT
TORSDOF 0
REMARK  Name = ../refined-set-2016/3gvu/3gvu_pocket.pdb
REMARK  244 active torsions:
REMARK  status: ('A' for Active; 'I' for Inactive)
REMARK    1  A    between atoms: _1  and  _3
REMARK    2  A    between atoms: _3  and  _4
REMARK    3  A    between atoms: _3  and  _6
REMARK    4  A    between atoms: _6  and  _7
REMARK    5  A    between atoms: _10  and  _12
REMARK    6  A    between atoms: _12  and  _13
REMARK    7  A    between atoms: _15  and  _17
REMARK    8  A    between atoms: _17  and  _18
REMARK    9  A    between atoms: _17  and  _20
REMARK   10  A    between atoms: _20  and  _21
REMARK   11  A    between atoms: _21  and  _22
REMARK   12  A    between atoms: _27  and  _29
REMARK   13  A    between atoms: _29  and  _30
REMARK   14  A    between atoms: _29  and  _32
REMARK   15  A    between atoms: _32  and  _33
REMARK   16  A    between atoms: _38  and  _39
REMARK   17  A    between atoms: _41  and  _43
REMARK   18  A    between atoms: _43  and  _44
REMARK   19  A    between atoms: _46  and  _48
REMARK   20  A    between atoms: _48  and  _49
REMARK   21  A    between atoms: _48  and  _51
REMARK   22  A    between atoms: _51  and  _52
REMARK   23  A    between atoms: _52  and  _53
REMARK   24  A    between atoms: _56  and  _58
REMARK   25  A    between atoms: _58  and  _59
REMARK   26  A    between atoms: _58  and  _61
REMARK   27  A    between atoms: _64  and  _66
REMARK   28  A    between atoms: _66  and  _67
REMARK   29  A    between atoms: _66  and  _69
REMARK   30  A    between atoms: _69  and  _70
REMARK   31  A    between atoms: _75  and  _76
REMARK   32  A    between atoms: _78  and  _80
REMARK   33  A    between atoms: _80  and  _81
REMARK   34  A    between atoms: _80  and  _83
REMARK   35  A    between atoms: _86  and  _88
REMARK   36  A    between atoms: _88  and  _89
REMARK   37  A    between atoms: _88  and  _91
REMARK   38  A    between atoms: _91  and  _92
REMARK   39  A    between atoms: _95  and  _97
REMARK   40  A    between atoms: _97  and  _98
REMARK   41  A    between atoms: _97  and  _100
REMARK   42  A    between atoms: _103  and  _105
REMARK   43  A    between atoms: _105  and  _106
REMARK   44  A    between atoms: _109  and  _111
REMARK   45  A    between atoms: _111  and  _112
REMARK   46  A    between atoms: _111  and  _114
REMARK   47  A    between atoms: _117  and  _119
REMARK   48  A    between atoms: _119  and  _120
REMARK   49  A    between atoms: _119  and  _122
REMARK   50  A    between atoms: _122  and  _123
REMARK   51  A    between atoms: _123  and  _124
REMARK   52  A    between atoms: _124  and  _125
REMARK   53  A    between atoms: _125  and  _126
REMARK   54  A    between atoms: _130  and  _132
REMARK   55  A    between atoms: _132  and  _133
REMARK   56  A    between atoms: _132  and  _135
REMARK   57  A    between atoms: _135  and  _136
REMARK   58  A    between atoms: _139  and  _141
REMARK   59  A    between atoms: _141  and  _142
REMARK   60  A    between atoms: _141  and  _144
REMARK   61  A    between atoms: _144  and  _145
REMARK   62  A    between atoms: _145  and  _146
REMARK   63  A    between atoms: _149  and  _151
REMARK   64  A    between atoms: _151  and  _152
REMARK   65  A    between atoms: _151  and  _154
REMARK   66  A    between atoms: _154  and  _155
REMARK   67  A    between atoms: _161  and  _163
REMARK   68  A    between atoms: _163  and  _164
REMARK   69  A    between atoms: _163  and  _166
REMARK   70  A    between atoms: _166  and  _167
REMARK   71  A    between atoms: _167  and  _168
REMARK   72  A    between atoms: _168  and  _169
REMARK   73  A    between atoms: _169  and  _170
REMARK   74  A    between atoms: _174  and  _176
REMARK   75  A    between atoms: _176  and  _177
REMARK   76  A    between atoms: _176  and  _179
REMARK   77  A    between atoms: _179  and  _180
REMARK   78  A    between atoms: _180  and  _181
REMARK   79  A    between atoms: _184  and  _186
REMARK   80  A    between atoms: _186  and  _187
REMARK   81  A    between atoms: _190  and  _192
REMARK   82  A    between atoms: _192  and  _193
REMARK   83  A    between atoms: _192  and  _195
REMARK   84  A    between atoms: _198  and  _200
REMARK   85  A    between atoms: _200  and  _201
REMARK   86  A    between atoms: _200  and  _203
REMARK   87  A    between atoms: _203  and  _204
REMARK   88  A    between atoms: _204  and  _205
REMARK   89  A    between atoms: _207  and  _209
REMARK   90  A    between atoms: _209  and  _210
REMARK   91  A    between atoms: _209  and  _212
REMARK   92  A    between atoms: _212  and  _213
REMARK   93  A    between atoms: _213  and  _214
REMARK   94  A    between atoms: _214  and  _215
REMARK   95  A    between atoms: _215  and  _216
REMARK   96  A    between atoms: _220  and  _222
REMARK   97  A    between atoms: _222  and  _223
REMARK   98  A    between atoms: _222  and  _225
REMARK   99  A    between atoms: _225  and  _226
REMARK  100  A    between atoms: _229  and  _231
REMARK  101  A    between atoms: _231  and  _232
REMARK  102  A    between atoms: _231  and  _234
REMARK  103  A    between atoms: _234  and  _235
REMARK  104  A    between atoms: _238  and  _240
REMARK  105  A    between atoms: _240  and  _241
REMARK  106  A    between atoms: _240  and  _243
REMARK  107  A    between atoms: _246  and  _248
REMARK  108  A    between atoms: _248  and  _249
REMARK  109  A    between atoms: _248  and  _251
REMARK  110  A    between atoms: _251  and  _252
REMARK  111  A    between atoms: _252  and  _253
REMARK  112  A    between atoms: _258  and  _260
REMARK  113  A    between atoms: _260  and  _261
REMARK  114  A    between atoms: _260  and  _263
REMARK  115  A    between atoms: _263  and  _264
REMARK  116  A    between atoms: _267  and  _269
REMARK  117  A    between atoms: _269  and  _270
REMARK  118  A    between atoms: _269  and  _272
REMARK  119  A    between atoms: _272  and  _273
REMARK  120  A    between atoms: _276  and  _278
REMARK  121  A    between atoms: _278  and  _279
REMARK  122  A    between atoms: _281  and  _283
REMARK  123  A    between atoms: _283  and  _284
REMARK  124  A    between atoms: _283  and  _286
REMARK  125  A    between atoms: _286  and  _287
REMARK  126  A    between atoms: _292  and  _293
REMARK  127  A    between atoms: _295  and  _297
REMARK  128  A    between atoms: _297  and  _298
REMARK  129  A    between atoms: _297  and  _300
REMARK  130  A    between atoms: _300  and  _301
REMARK  131  A    between atoms: _304  and  _306
REMARK  132  A    between atoms: _306  and  _307
REMARK  133  A    between atoms: _306  and  _309
REMARK  134  A    between atoms: _312  and  _314
REMARK  135  A    between atoms: _314  and  _315
REMARK  136  A    between atoms: _314  and  _317
REMARK  137  A    between atoms: _317  and  _318
REMARK  138  A    between atoms: _321  and  _323
REMARK  139  A    between atoms: _323  and  _324
REMARK  140  A    between atoms: _323  and  _326
REMARK  141  A    between atoms: _326  and  _327
REMARK  142  A    between atoms: _327  and  _328
REMARK  143  A    between atoms: _331  and  _333
REMARK  144  A    between atoms: _333  and  _334
REMARK  145  A    between atoms: _333  and  _336
REMARK  146  A    between atoms: _336  and  _337
REMARK  147  A    between atoms: _342  and  _343
REMARK  148  A    between atoms: _345  and  _347
REMARK  149  A    between atoms: _347  and  _348
REMARK  150  A    between atoms: _347  and  _350
REMARK  151  A    between atoms: _350  and  _351
REMARK  152  A    between atoms: _351  and  _352
REMARK  153  A    between atoms: _355  and  _356
REMARK  154  A    between atoms: _361  and  _363
REMARK  155  A    between atoms: _363  and  _364
REMARK  156  A    between atoms: _363  and  _366
REMARK  157  A    between atoms: _366  and  _367
REMARK  158  A    between atoms: _372  and  _373
REMARK  159  A    between atoms: _375  and  _377
REMARK  160  A    between atoms: _377  and  _378
REMARK  161  A    between atoms: _380  and  _382
REMARK  162  A    between atoms: _382  and  _383
REMARK  163  A    between atoms: _382  and  _385
REMARK  164  A    between atoms: _385  and  _386
REMARK  165  A    between atoms: _391  and  _393
REMARK  166  A    between atoms: _393  and  _394
REMARK  167  A    between atoms: _393  and  _396
REMARK  168  A    between atoms: _396  and  _397
REMARK  169  A    between atoms: _400  and  _402
REMARK  170  A    between atoms: _402  and  _403
REMARK  171  A    between atoms: _402  and  _405
REMARK  172  A    between atoms: _405  and  _406
REMARK  173  A    between atoms: _411  and  _413
REMARK  174  A    between atoms: _413  and  _414
REMARK  175  A    between atoms: _413  and  _416
REMARK  176  A    between atoms: _416  and  _417
REMARK  177  A    between atoms: _423  and  _425
REMARK  178  A    between atoms: _425  and  _426
REMARK  179  A    between atoms: _425  and  _428
REMARK  180  A    between atoms: _428  and  _429
REMARK  181  A    between atoms: _432  and  _434
REMARK  182  A    between atoms: _434  and  _435
REMARK  183  A    between atoms: _434  and  _437
REMARK  184  A    between atoms: _437  and  _438
REMARK  185  A    between atoms: _443  and  _445
REMARK  186  A    between atoms: _445  and  _446
REMARK  187  A    between atoms: _445  and  _448
REMARK  188  A    between atoms: _448  and  _449
REMARK  189  A    between atoms: _449  and  _450
REMARK  190  A    between atoms: _450  and  _451
REMARK  191  A    between atoms: _460  and  _462
REMARK  192  A    between atoms: _462  and  _463
REMARK  193  A    between atoms: _462  and  _465
REMARK  194  A    between atoms: _465  and  _466
REMARK  195  A    between atoms: _469  and  _471
REMARK  196  A    between atoms: _471  and  _472
REMARK  197  A    between atoms: _471  and  _474
REMARK  198  A    between atoms: _474  and  _475
REMARK  199  A    between atoms: _475  and  _476
REMARK  200  A    between atoms: _476  and  _477
REMARK  201  A    between atoms: _486  and  _488
REMARK  202  A    between atoms: _488  and  _489
REMARK  203  A    between atoms: _488  and  _491
REMARK  204  A    between atoms: _491  and  _492
REMARK  205  A    between atoms: _497  and  _499
REMARK  206  A    between atoms: _499  and  _500
REMARK  207  A    between atoms: _499  and  _502
REMARK  208  A    between atoms: _504  and  _506
REMARK  209  A    between atoms: _506  and  _507
REMARK  210  A    between atoms: _506  and  _509
REMARK  211  A    between atoms: _509  and  _510
REMARK  212  A    between atoms: _513  and  _515
REMARK  213  A    between atoms: _515  and  _516
REMARK  214  A    between atoms: _515  and  _518
REMARK  215  A    between atoms: _521  and  _523
REMARK  216  A    between atoms: _523  and  _524
REMARK  217  A    between atoms: _523  and  _526
REMARK  218  A    between atoms: _526  and  _527
REMARK  219  A    between atoms: _527  and  _528
REMARK  220  A    between atoms: _528  and  _529
REMARK  221  A    between atoms: _529  and  _530
REMARK  222  A    between atoms: _534  and  _536
REMARK  223  A    between atoms: _536  and  _537
REMARK  224  A    between atoms: _536  and  _539
REMARK  225  A    between atoms: _542  and  _544
REMARK  226  A    between atoms: _544  and  _545
REMARK  227  A    between atoms: _548  and  _550
REMARK  228  A    between atoms: _550  and  _551
REMARK  229  A    between atoms: _550  and  _553
REMARK  230  A    between atoms: _553  and  _554
REMARK  231  A    between atoms: _557  and  _559
REMARK  232  A    between atoms: _559  and  _560
REMARK  233  A    between atoms: _559  and  _562
REMARK  234  A    between atoms: _562  and  _563
REMARK  235  A    between atoms: _569  and  _571
REMARK  236  A    between atoms: _571  and  _572
REMARK  237  A    between atoms: _574  and  _576
REMARK  238  A    between atoms: _576  and  _577
REMARK  239  A    between atoms: _576  and  _579
REMARK  240  A    between atoms: _579  and  _580
REMARK  241  A    between atoms: _583  and  _585
REMARK  242  A    between atoms: _585  and  _586
REMARK  243  A    between atoms: _585  and  _588
REMARK  244  A    between atoms: _588  and  _589
REMARK                            x       y       z     vdW  Elec       q    Type
REMARK                         _______ _______ _______ _____ _____    ______ ____
ROOT
ATOM      1  O   HOH     1      28.306  15.296  19.127  0.00  0.00    +0.000 OA
ENDROOT
TORSDOF 0
REMARK  Name = ../refined-set-2016/3gvu/3gvu_pocket.pdb
REMARK  244 active torsions:
REMARK  status: ('A' for Active; 'I' for Inactive)
REMARK    1  A    between atoms: _1  and  _3
REMARK    2  A    between atoms: _3  and  _4
REMARK    3  A    between atoms: _3  and  _6
REMARK    4  A    between atoms: _6  and  _7
REMARK    5  A    between atoms: _10  and  _12
REMARK    6  A    between atoms: _12  and  _13
REMARK    7  A    between atoms: _15  and  _17
REMARK    8  A    between atoms: _17  and  _18
REMARK    9  A    between atoms: _17  and  _20
REMARK   10  A    between atoms: _20  and  _21
REMARK   11  A    between atoms: _21  and  _22
REMARK   12  A    between atoms: _27  and  _29
REMARK   13  A    between atoms: _29  and  _30
REMARK   14  A    between atoms: _29  and  _32
REMARK   15  A    between atoms: _32  and  _33
REMARK   16  A    between atoms: _38  and  _39
REMARK   17  A    between atoms: _41  and  _43
REMARK   18  A    between atoms: _43  and  _44
REMARK   19  A    between atoms: _46  and  _48
REMARK   20  A    between atoms: _48  and  _49
REMARK   21  A    between atoms: _48  and  _51
REMARK   22  A    between atoms: _51  and  _52
REMARK   23  A    between atoms: _52  and  _53
REMARK   24  A    between atoms: _56  and  _58
REMARK   25  A    between atoms: _58  and  _59
REMARK   26  A    between atoms: _58  and  _61
REMARK   27  A    between atoms: _64  and  _66
REMARK   28  A    between atoms: _66  and  _67
REMARK   29  A    between atoms: _66  and  _69
REMARK   30  A    between atoms: _69  and  _70
REMARK   31  A    between atoms: _75  and  _76
REMARK   32  A    between atoms: _78  and  _80
REMARK   33  A    between atoms: _80  and  _81
REMARK   34  A    between atoms: _80  and  _83
REMARK   35  A    between atoms: _86  and  _88
REMARK   36  A    between atoms: _88  and  _89
REMARK   37  A    between atoms: _88  and  _91
REMARK   38  A    between atoms: _91  and  _92
REMARK   39  A    between atoms: _95  and  _97
REMARK   40  A    between atoms: _97  and  _98
REMARK   41  A    between atoms: _97  and  _100
REMARK   42  A    between atoms: _103  and  _105
REMARK   43  A    between atoms: _105  and  _106
REMARK   44  A    between atoms: _109  and  _111
REMARK   45  A    between atoms: _111  and  _112
REMARK   46  A    between atoms: _111  and  _114
REMARK   47  A    between atoms: _117  and  _119
REMARK   48  A    between atoms: _119  and  _120
REMARK   49  A    between atoms: _119  and  _122
REMARK   50  A    between atoms: _122  and  _123
REMARK   51  A    between atoms: _123  and  _124
REMARK   52  A    between atoms: _124  and  _125
REMARK   53  A    between atoms: _125  and  _126
REMARK   54  A    between atoms: _130  and  _132
REMARK   55  A    between atoms: _132  and  _133
REMARK   56  A    between atoms: _132  and  _135
REMARK   57  A    between atoms: _135  and  _136
REMARK   58  A    between atoms: _139  and  _141
REMARK   59  A    between atoms: _141  and  _142
REMARK   60  A    between atoms: _141  and  _144
REMARK   61  A    between atoms: _144  and  _145
REMARK   62  A    between atoms: _145  and  _146
REMARK   63  A    between atoms: _149  and  _151
REMARK   64  A    between atoms: _151  and  _152
REMARK   65  A    between atoms: _151  and  _154
REMARK   66  A    between atoms: _154  and  _155
REMARK   67  A    between atoms: _161  and  _163
REMARK   68  A    between atoms: _163  and  _164
REMARK   69  A    between atoms: _163  and  _166
REMARK   70  A    between atoms: _166  and  _167
REMARK   71  A    between atoms: _167  and  _168
REMARK   72  A    between atoms: _168  and  _169
REMARK   73  A    between atoms: _169  and  _170
REMARK   74  A    between atoms: _174  and  _176
REMARK   75  A    between atoms: _176  and  _177
REMARK   76  A    between atoms: _176  and  _179
REMARK   77  A    between atoms: _179  and  _180
REMARK   78  A    between atoms: _180  and  _181
REMARK   79  A    between atoms: _184  and  _186
REMARK   80  A    between atoms: _186  and  _187
REMARK   81  A    between atoms: _190  and  _192
REMARK   82  A    between atoms: _192  and  _193
REMARK   83  A    between atoms: _192  and  _195
REMARK   84  A    between atoms: _198  and  _200
REMARK   85  A    between atoms: _200  and  _201
REMARK   86  A    between atoms: _200  and  _203
REMARK   87  A    between atoms: _203  and  _204
REMARK   88  A    between atoms: _204  and  _205
REMARK   89  A    between atoms: _207  and  _209
REMARK   90  A    between atoms: _209  and  _210
REMARK   91  A    between atoms: _209  and  _212
REMARK   92  A    between atoms: _212  and  _213
REMARK   93  A    between atoms: _213  and  _214
REMARK   94  A    between atoms: _214  and  _215
REMARK   95  A    between atoms: _215  and  _216
REMARK   96  A    between atoms: _220  and  _222
REMARK   97  A    between atoms: _222  and  _223
REMARK   98  A    between atoms: _222  and  _225
REMARK   99  A    between atoms: _225  and  _226
REMARK  100  A    between atoms: _229  and  _231
REMARK  101  A    between atoms: _231  and  _232
REMARK  102  A    between atoms: _231  and  _234
REMARK  103  A    between atoms: _234  and  _235
REMARK  104  A    between atoms: _238  and  _240
REMARK  105  A    between atoms: _240  and  _241
REMARK  106  A    between atoms: _240  and  _243
REMARK  107  A    between atoms: _246  and  _248
REMARK  108  A    between atoms: _248  and  _249
REMARK  109  A    between atoms: _248  and  _251
REMARK  110  A    between atoms: _251  and  _252
REMARK  111  A    between atoms: _252  and  _253
REMARK  112  A    between atoms: _258  and  _260
REMARK  113  A    between atoms: _260  and  _261
REMARK  114  A    between atoms: _260  and  _263
REMARK  115  A    between atoms: _263  and  _264
REMARK  116  A    between atoms: _267  and  _269
REMARK  117  A    between atoms: _269  and  _270
REMARK  118  A    between atoms: _269  and  _272
REMARK  119  A    between atoms: _272  and  _273
REMARK  120  A    between atoms: _276  and  _278
REMARK  121  A    between atoms: _278  and  _279
REMARK  122  A    between atoms: _281  and  _283
REMARK  123  A    between atoms: _283  and  _284
REMARK  124  A    between atoms: _283  and  _286
REMARK  125  A    between atoms: _286  and  _287
REMARK  126  A    between atoms: _292  and  _293
REMARK  127  A    between atoms: _295  and  _297
REMARK  128  A    between atoms: _297  and  _298
REMARK  129  A    between atoms: _297  and  _300
REMARK  130  A    between atoms: _300  and  _301
REMARK  131  A    between atoms: _304  and  _306
REMARK  132  A    between atoms: _306  and  _307
REMARK  133  A    between atoms: _306  and  _309
REMARK  134  A    between atoms: _312  and  _314
REMARK  135  A    between atoms: _314  and  _315
REMARK  136  A    between atoms: _314  and  _317
REMARK  137  A    between atoms: _317  and  _318
REMARK  138  A    between atoms: _321  and  _323
REMARK  139  A    between atoms: _323  and  _324
REMARK  140  A    between atoms: _323  and  _326
REMARK  141  A    between atoms: _326  and  _327
REMARK  142  A    between atoms: _327  and  _328
REMARK  143  A    between atoms: _331  and  _333
REMARK  144  A    between atoms: _333  and  _334
REMARK  145  A    between atoms: _333  and  _336
REMARK  146  A    between atoms: _336  and  _337
REMARK  147  A    between atoms: _342  and  _343
REMARK  148  A    between atoms: _345  and  _347
REMARK  149  A    between atoms: _347  and  _348
REMARK  150  A    between atoms: _347  and  _350
REMARK  151  A    between atoms: _350  and  _351
REMARK  152  A    between atoms: _351  and  _352
REMARK  153  A    between atoms: _355  and  _356
REMARK  154  A    between atoms: _361  and  _363
REMARK  155  A    between atoms: _363  and  _364
REMARK  156  A    between atoms: _363  and  _366
REMARK  157  A    between atoms: _366  and  _367
REMARK  158  A    between atoms: _372  and  _373
REMARK  159  A    between atoms: _375  and  _377
REMARK  160  A    between atoms: _377  and  _378
REMARK  161  A    between atoms: _380  and  _382
REMARK  162  A    between atoms: _382  and  _383
REMARK  163  A    between atoms: _382  and  _385
REMARK  164  A    between atoms: _385  and  _386
REMARK  165  A    between atoms: _391  and  _393
REMARK  166  A    between atoms: _393  and  _394
REMARK  167  A    between atoms: _393  and  _396
REMARK  168  A    between atoms: _396  and  _397
REMARK  169  A    between atoms: _400  and  _402
REMARK  170  A    between atoms: _402  and  _403
REMARK  171  A    between atoms: _402  and  _405
REMARK  172  A    between atoms: _405  and  _406
REMARK  173  A    between atoms: _411  and  _413
REMARK  174  A    between atoms: _413  and  _414
REMARK  175  A    between atoms: _413  and  _416
REMARK  176  A    between atoms: _416  and  _417
REMARK  177  A    between atoms: _423  and  _425
REMARK  178  A    between atoms: _425  and  _426
REMARK  179  A    between atoms: _425  and  _428
REMARK  180  A    between atoms: _428  and  _429
REMARK  181  A    between atoms: _432  and  _434
REMARK  182  A    between atoms: _434  and  _435
REMARK  183  A    between atoms: _434  and  _437
REMARK  184  A    between atoms: _437  and  _438
REMARK  185  A    between atoms: _443  and  _445
REMARK  186  A    between atoms: _445  and  _446
REMARK  187  A    between atoms: _445  and  _448
REMARK  188  A    between atoms: _448  and  _449
REMARK  189  A    between atoms: _449  and  _450
REMARK  190  A    between atoms: _450  and  _451
REMARK  191  A    between atoms: _460  and  _462
REMARK  192  A    between atoms: _462  and  _463
REMARK  193  A    between atoms: _462  and  _465
REMARK  194  A    between atoms: _465  and  _466
REMARK  195  A    between atoms: _469  and  _471
REMARK  196  A    between atoms: _471  and  _472
REMARK  197  A    between atoms: _471  and  _474
REMARK  198  A    between atoms: _474  and  _475
REMARK  199  A    between atoms: _475  and  _476
REMARK  200  A    between atoms: _476  and  _477
REMARK  201  A    between atoms: _486  and  _488
REMARK  202  A    between atoms: _488  and  _489
REMARK  203  A    between atoms: _488  and  _491
REMARK  204  A    between atoms: _491  and  _492
REMARK  205  A    between atoms: _497  and  _499
REMARK  206  A    between atoms: _499  and  _500
REMARK  207  A    between atoms: _499  and  _502
REMARK  208  A    between atoms: _504  and  _506
REMARK  209  A    between atoms: _506  and  _507
REMARK  210  A    between atoms: _506  and  _509
REMARK  211  A    between atoms: _509  and  _510
REMARK  212  A    between atoms: _513  and  _515
REMARK  213  A    between atoms: _515  and  _516
REMARK  214  A    between atoms: _515  and  _518
REMARK  215  A    between atoms: _521  and  _523
REMARK  216  A    between atoms: _523  and  _524
REMARK  217  A    between atoms: _523  and  _526
REMARK  218  A    between atoms: _526  and  _527
REMARK  219  A    between atoms: _527  and  _528
REMARK  220  A    between atoms: _528  and  _529
REMARK  221  A    between atoms: _529  and  _530
REMARK  222  A    between atoms: _534  and  _536
REMARK  223  A    between atoms: _536  and  _537
REMARK  224  A    between atoms: _536  and  _539
REMARK  225  A    between atoms: _542  and  _544
REMARK  226  A    between atoms: _544  and  _545
REMARK  227  A    between atoms: _548  and  _550
REMARK  228  A    between atoms: _550  and  _551
REMARK  229  A    between atoms: _550  and  _553
REMARK  230  A    between atoms: _553  and  _554
REMARK  231  A    between atoms: _557  and  _559
REMARK  232  A    between atoms: _559  and  _560
REMARK  233  A    between atoms: _559  and  _562
REMARK  234  A    between atoms: _562  and  _563
REMARK  235  A    between atoms: _569  and  _571
REMARK  236  A    between atoms: _571  and  _572
REMARK  237  A    between atoms: _574  and  _576
REMARK  238  A    between atoms: _576  and  _577
REMARK  239  A    between atoms: _576  and  _579
REMARK  240  A    between atoms: _579  and  _580
REMARK  241  A    between atoms: _583  and  _585
REMARK  242  A    between atoms: _585  and  _586
REMARK  243  A    between atoms: _585  and  _588
REMARK  244  A    between atoms: _588  and  _589
REMARK                            x       y       z     vdW  Elec       q    Type
REMARK                         _______ _______ _______ _____ _____    ______ ____
ROOT
ATOM      1  O   HOH     1       4.521  14.330  18.152  0.00  0.00    +0.000 OA
ENDROOT
TORSDOF 0
REMARK  Name = ../refined-set-2016/3gvu/3gvu_pocket.pdb
REMARK  244 active torsions:
REMARK  status: ('A' for Active; 'I' for Inactive)
REMARK    1  A    between atoms: _1  and  _3
REMARK    2  A    between atoms: _3  and  _4
REMARK    3  A    between atoms: _3  and  _6
REMARK    4  A    between atoms: _6  and  _7
REMARK    5  A    between atoms: _10  and  _12
REMARK    6  A    between atoms: _12  and  _13
REMARK    7  A    between atoms: _15  and  _17
REMARK    8  A    between atoms: _17  and  _18
REMARK    9  A    between atoms: _17  and  _20
REMARK   10  A    between atoms: _20  and  _21
REMARK   11  A    between atoms: _21  and  _22
REMARK   12  A    between atoms: _27  and  _29
REMARK   13  A    between atoms: _29  and  _30
REMARK   14  A    between atoms: _29  and  _32
REMARK   15  A    between atoms: _32  and  _33
REMARK   16  A    between atoms: _38  and  _39
REMARK   17  A    between atoms: _41  and  _43
REMARK   18  A    between atoms: _43  and  _44
REMARK   19  A    between atoms: _46  and  _48
REMARK   20  A    between atoms: _48  and  _49
REMARK   21  A    between atoms: _48  and  _51
REMARK   22  A    between atoms: _51  and  _52
REMARK   23  A    between atoms: _52  and  _53
REMARK   24  A    between atoms: _56  and  _58
REMARK   25  A    between atoms: _58  and  _59
REMARK   26  A    between atoms: _58  and  _61
REMARK   27  A    between atoms: _64  and  _66
REMARK   28  A    between atoms: _66  and  _67
REMARK   29  A    between atoms: _66  and  _69
REMARK   30  A    between atoms: _69  and  _70
REMARK   31  A    between atoms: _75  and  _76
REMARK   32  A    between atoms: _78  and  _80
REMARK   33  A    between atoms: _80  and  _81
REMARK   34  A    between atoms: _80  and  _83
REMARK   35  A    between atoms: _86  and  _88
REMARK   36  A    between atoms: _88  and  _89
REMARK   37  A    between atoms: _88  and  _91
REMARK   38  A    between atoms: _91  and  _92
REMARK   39  A    between atoms: _95  and  _97
REMARK   40  A    between atoms: _97  and  _98
REMARK   41  A    between atoms: _97  and  _100
REMARK   42  A    between atoms: _103  and  _105
REMARK   43  A    between atoms: _105  and  _106
REMARK   44  A    between atoms: _109  and  _111
REMARK   45  A    between atoms: _111  and  _112
REMARK   46  A    between atoms: _111  and  _114
REMARK   47  A    between atoms: _117  and  _119
REMARK   48  A    between atoms: _119  and  _120
REMARK   49  A    between atoms: _119  and  _122
REMARK   50  A    between atoms: _122  and  _123
REMARK   51  A    between atoms: _123  and  _124
REMARK   52  A    between atoms: _124  and  _125
REMARK   53  A    between atoms: _125  and  _126
REMARK   54  A    between atoms: _130  and  _132
REMARK   55  A    between atoms: _132  and  _133
REMARK   56  A    between atoms: _132  and  _135
REMARK   57  A    between atoms: _135  and  _136
REMARK   58  A    between atoms: _139  and  _141
REMARK   59  A    between atoms: _141  and  _142
REMARK   60  A    between atoms: _141  and  _144
REMARK   61  A    between atoms: _144  and  _145
REMARK   62  A    between atoms: _145  and  _146
REMARK   63  A    between atoms: _149  and  _151
REMARK   64  A    between atoms: _151  and  _152
REMARK   65  A    between atoms: _151  and  _154
REMARK   66  A    between atoms: _154  and  _155
REMARK   67  A    between atoms: _161  and  _163
REMARK   68  A    between atoms: _163  and  _164
REMARK   69  A    between atoms: _163  and  _166
REMARK   70  A    between atoms: _166  and  _167
REMARK   71  A    between atoms: _167  and  _168
REMARK   72  A    between atoms: _168  and  _169
REMARK   73  A    between atoms: _169  and  _170
REMARK   74  A    between atoms: _174  and  _176
REMARK   75  A    between atoms: _176  and  _177
REMARK   76  A    between atoms: _176  and  _179
REMARK   77  A    between atoms: _179  and  _180
REMARK   78  A    between atoms: _180  and  _181
REMARK   79  A    between atoms: _184  and  _186
REMARK   80  A    between atoms: _186  and  _187
REMARK   81  A    between atoms: _190  and  _192
REMARK   82  A    between atoms: _192  and  _193
REMARK   83  A    between atoms: _192  and  _195
REMARK   84  A    between atoms: _198  and  _200
REMARK   85  A    between atoms: _200  and  _201
REMARK   86  A    between atoms: _200  and  _203
REMARK   87  A    between atoms: _203  and  _204
REMARK   88  A    between atoms: _204  and  _205
REMARK   89  A    between atoms: _207  and  _209
REMARK   90  A    between atoms: _209  and  _210
REMARK   91  A    between atoms: _209  and  _212
REMARK   92  A    between atoms: _212  and  _213
REMARK   93  A    between atoms: _213  and  _214
REMARK   94  A    between atoms: _214  and  _215
REMARK   95  A    between atoms: _215  and  _216
REMARK   96  A    between atoms: _220  and  _222
REMARK   97  A    between atoms: _222  and  _223
REMARK   98  A    between atoms: _222  and  _225
REMARK   99  A    between atoms: _225  and  _226
REMARK  100  A    between atoms: _229  and  _231
REMARK  101  A    between atoms: _231  and  _232
REMARK  102  A    between atoms: _231  and  _234
REMARK  103  A    between atoms: _234  and  _235
REMARK  104  A    between atoms: _238  and  _240
REMARK  105  A    between atoms: _240  and  _241
REMARK  106  A    between atoms: _240  and  _243
REMARK  107  A    between atoms: _246  and  _248
REMARK  108  A    between atoms: _248  and  _249
REMARK  109  A    between atoms: _248  and  _251
REMARK  110  A    between atoms: _251  and  _252
REMARK  111  A    between atoms: _252  and  _253
REMARK  112  A    between atoms: _258  and  _260
REMARK  113  A    between atoms: _260  and  _261
REMARK  114  A    between atoms: _260  and  _263
REMARK  115  A    between atoms: _263  and  _264
REMARK  116  A    between atoms: _267  and  _269
REMARK  117  A    between atoms: _269  and  _270
REMARK  118  A    between atoms: _269  and  _272
REMARK  119  A    between atoms: _272  and  _273
REMARK  120  A    between atoms: _276  and  _278
REMARK  121  A    between atoms: _278  and  _279
REMARK  122  A    between atoms: _281  and  _283
REMARK  123  A    between atoms: _283  and  _284
REMARK  124  A    between atoms: _283  and  _286
REMARK  125  A    between atoms: _286  and  _287
REMARK  126  A    between atoms: _292  and  _293
REMARK  127  A    between atoms: _295  and  _297
REMARK  128  A    between atoms: _297  and  _298
REMARK  129  A    between atoms: _297  and  _300
REMARK  130  A    between atoms: _300  and  _301
REMARK  131  A    between atoms: _304  and  _306
REMARK  132  A    between atoms: _306  and  _307
REMARK  133  A    between atoms: _306  and  _309
REMARK  134  A    between atoms: _312  and  _314
REMARK  135  A    between atoms: _314  and  _315
REMARK  136  A    between atoms: _314  and  _317
REMARK  137  A    between atoms: _317  and  _318
REMARK  138  A    between atoms: _321  and  _323
REMARK  139  A    between atoms: _323  and  _324
REMARK  140  A    between atoms: _323  and  _326
REMARK  141  A    between atoms: _326  and  _327
REMARK  142  A    between atoms: _327  and  _328
REMARK  143  A    between atoms: _331  and  _333
REMARK  144  A    between atoms: _333  and  _334
REMARK  145  A    between atoms: _333  and  _336
REMARK  146  A    between atoms: _336  and  _337
REMARK  147  A    between atoms: _342  and  _343
REMARK  148  A    between atoms: _345  and  _347
REMARK  149  A    between atoms: _347  and  _348
REMARK  150  A    between atoms: _347  and  _350
REMARK  151  A    between atoms: _350  and  _351
REMARK  152  A    between atoms: _351  and  _352
REMARK  153  A    between atoms: _355  and  _356
REMARK  154  A    between atoms: _361  and  _363
REMARK  155  A    between atoms: _363  and  _364
REMARK  156  A    between atoms: _363  and  _366
REMARK  157  A    between atoms: _366  and  _367
REMARK  158  A    between atoms: _372  and  _373
REMARK  159  A    between atoms: _375  and  _377
REMARK  160  A    between atoms: _377  and  _378
REMARK  161  A    between atoms: _380  and  _382
REMARK  162  A    between atoms: _382  and  _383
REMARK  163  A    between atoms: _382  and  _385
REMARK  164  A    between atoms: _385  and  _386
REMARK  165  A    between atoms: _391  and  _393
REMARK  166  A    between atoms: _393  and  _394
REMARK  167  A    between atoms: _393  and  _396
REMARK  168  A    between atoms: _396  and  _397
REMARK  169  A    between atoms: _400  and  _402
REMARK  170  A    between atoms: _402  and  _403
REMARK  171  A    between atoms: _402  and  _405
REMARK  172  A    between atoms: _405  and  _406
REMARK  173  A    between atoms: _411  and  _413
REMARK  174  A    between atoms: _413  and  _414
REMARK  175  A    between atoms: _413  and  _416
REMARK  176  A    between atoms: _416  and  _417
REMARK  177  A    between atoms: _423  and  _425
REMARK  178  A    between atoms: _425  and  _426
REMARK  179  A    between atoms: _425  and  _428
REMARK  180  A    between atoms: _428  and  _429
REMARK  181  A    between atoms: _432  and  _434
REMARK  182  A    between atoms: _434  and  _435
REMARK  183  A    between atoms: _434  and  _437
REMARK  184  A    between atoms: _437  and  _438
REMARK  185  A    between atoms: _443  and  _445
REMARK  186  A    between atoms: _445  and  _446
REMARK  187  A    between atoms: _445  and  _448
REMARK  188  A    between atoms: _448  and  _449
REMARK  189  A    between atoms: _449  and  _450
REMARK  190  A    between atoms: _450  and  _451
REMARK  191  A    between atoms: _460  and  _462
REMARK  192  A    between atoms: _462  and  _463
REMARK  193  A    between atoms: _462  and  _465
REMARK  194  A    between atoms: _465  and  _466
REMARK  195  A    between atoms: _469  and  _471
REMARK  196  A    between atoms: _471  and  _472
REMARK  197  A    between atoms: _471  and  _474
REMARK  198  A    between atoms: _474  and  _475
REMARK  199  A    between atoms: _475  and  _476
REMARK  200  A    between atoms: _476  and  _477
REMARK  201  A    between atoms: _486  and  _488
REMARK  202  A    between atoms: _488  and  _489
REMARK  203  A    between atoms: _488  and  _491
REMARK  204  A    between atoms: _491  and  _492
REMARK  205  A    between atoms: _497  and  _499
REMARK  206  A    between atoms: _499  and  _500
REMARK  207  A    between atoms: _499  and  _502
REMARK  208  A    between atoms: _504  and  _506
REMARK  209  A    between atoms: _506  and  _507
REMARK  210  A    between atoms: _506  and  _509
REMARK  211  A    between atoms: _509  and  _510
REMARK  212  A    between atoms: _513  and  _515
REMARK  213  A    between atoms: _515  and  _516
REMARK  214  A    between atoms: _515  and  _518
REMARK  215  A    between atoms: _521  and  _523
REMARK  216  A    between atoms: _523  and  _524
REMARK  217  A    between atoms: _523  and  _526
REMARK  218  A    between atoms: _526  and  _527
REMARK  219  A    between atoms: _527  and  _528
REMARK  220  A    between atoms: _528  and  _529
REMARK  221  A    between atoms: _529  and  _530
REMARK  222  A    between atoms: _534  and  _536
REMARK  223  A    between atoms: _536  and  _537
REMARK  224  A    between atoms: _536  and  _539
REMARK  225  A    between atoms: _542  and  _544
REMARK  226  A    between atoms: _544  and  _545
REMARK  227  A    between atoms: _548  and  _550
REMARK  228  A    between atoms: _550  and  _551
REMARK  229  A    between atoms: _550  and  _553
REMARK  230  A    between atoms: _553  and  _554
REMARK  231  A    between atoms: _557  and  _559
REMARK  232  A    between atoms: _559  and  _560
REMARK  233  A    between atoms: _559  and  _562
REMARK  234  A    between atoms: _562  and  _563
REMARK  235  A    between atoms: _569  and  _571
REMARK  236  A    between atoms: _571  and  _572
REMARK  237  A    between atoms: _574  and  _576
REMARK  238  A    between atoms: _576  and  _577
REMARK  239  A    between atoms: _576  and  _579
REMARK  240  A    between atoms: _579  and  _580
REMARK  241  A    between atoms: _583  and  _585
REMARK  242  A    between atoms: _585  and  _586
REMARK  243  A    between atoms: _585  and  _588
REMARK  244  A    between atoms: _588  and  _589
REMARK                            x       y       z     vdW  Elec       q    Type
REMARK                         _______ _______ _______ _____ _____    ______ ____
ROOT
ATOM      1  O   HOH     1      21.032  15.764  12.844  0.00  0.00    +0.000 OA
ENDROOT
TORSDOF 0
REMARK  Name = ../refined-set-2016/3gvu/3gvu_pocket.pdb
REMARK  244 active torsions:
REMARK  status: ('A' for Active; 'I' for Inactive)
REMARK    1  A    between atoms: _1  and  _3
REMARK    2  A    between atoms: _3  and  _4
REMARK    3  A    between atoms: _3  and  _6
REMARK    4  A    between atoms: _6  and  _7
REMARK    5  A    between atoms: _10  and  _12
REMARK    6  A    between atoms: _12  and  _13
REMARK    7  A    between atoms: _15  and  _17
REMARK    8  A    between atoms: _17  and  _18
REMARK    9  A    between atoms: _17  and  _20
REMARK   10  A    between atoms: _20  and  _21
REMARK   11  A    between atoms: _21  and  _22
REMARK   12  A    between atoms: _27  and  _29
REMARK   13  A    between atoms: _29  and  _30
REMARK   14  A    between atoms: _29  and  _32
REMARK   15  A    between atoms: _32  and  _33
REMARK   16  A    between atoms: _38  and  _39
REMARK   17  A    between atoms: _41  and  _43
REMARK   18  A    between atoms: _43  and  _44
REMARK   19  A    between atoms: _46  and  _48
REMARK   20  A    between atoms: _48  and  _49
REMARK   21  A    between atoms: _48  and  _51
REMARK   22  A    between atoms: _51  and  _52
REMARK   23  A    between atoms: _52  and  _53
REMARK   24  A    between atoms: _56  and  _58
REMARK   25  A    between atoms: _58  and  _59
REMARK   26  A    between atoms: _58  and  _61
REMARK   27  A    between atoms: _64  and  _66
REMARK   28  A    between atoms: _66  and  _67
REMARK   29  A    between atoms: _66  and  _69
REMARK   30  A    between atoms: _69  and  _70
REMARK   31  A    between atoms: _75  and  _76
REMARK   32  A    between atoms: _78  and  _80
REMARK   33  A    between atoms: _80  and  _81
REMARK   34  A    between atoms: _80  and  _83
REMARK   35  A    between atoms: _86  and  _88
REMARK   36  A    between atoms: _88  and  _89
REMARK   37  A    between atoms: _88  and  _91
REMARK   38  A    between atoms: _91  and  _92
REMARK   39  A    between atoms: _95  and  _97
REMARK   40  A    between atoms: _97  and  _98
REMARK   41  A    between atoms: _97  and  _100
REMARK   42  A    between atoms: _103  and  _105
REMARK   43  A    between atoms: _105  and  _106
REMARK   44  A    between atoms: _109  and  _111
REMARK   45  A    between atoms: _111  and  _112
REMARK   46  A    between atoms: _111  and  _114
REMARK   47  A    between atoms: _117  and  _119
REMARK   48  A    between atoms: _119  and  _120
REMARK   49  A    between atoms: _119  and  _122
REMARK   50  A    between atoms: _122  and  _123
REMARK   51  A    between atoms: _123  and  _124
REMARK   52  A    between atoms: _124  and  _125
REMARK   53  A    between atoms: _125  and  _126
REMARK   54  A    between atoms: _130  and  _132
REMARK   55  A    between atoms: _132  and  _133
REMARK   56  A    between atoms: _132  and  _135
REMARK   57  A    between atoms: _135  and  _136
REMARK   58  A    between atoms: _139  and  _141
REMARK   59  A    between atoms: _141  and  _142
REMARK   60  A    between atoms: _141  and  _144
REMARK   61  A    between atoms: _144  and  _145
REMARK   62  A    between atoms: _145  and  _146
REMARK   63  A    between atoms: _149  and  _151
REMARK   64  A    between atoms: _151  and  _152
REMARK   65  A    between atoms: _151  and  _154
REMARK   66  A    between atoms: _154  and  _155
REMARK   67  A    between atoms: _161  and  _163
REMARK   68  A    between atoms: _163  and  _164
REMARK   69  A    between atoms: _163  and  _166
REMARK   70  A    between atoms: _166  and  _167
REMARK   71  A    between atoms: _167  and  _168
REMARK   72  A    between atoms: _168  and  _169
REMARK   73  A    between atoms: _169  and  _170
REMARK   74  A    between atoms: _174  and  _176
REMARK   75  A    between atoms: _176  and  _177
REMARK   76  A    between atoms: _176  and  _179
REMARK   77  A    between atoms: _179  and  _180
REMARK   78  A    between atoms: _180  and  _181
REMARK   79  A    between atoms: _184  and  _186
REMARK   80  A    between atoms: _186  and  _187
REMARK   81  A    between atoms: _190  and  _192
REMARK   82  A    between atoms: _192  and  _193
REMARK   83  A    between atoms: _192  and  _195
REMARK   84  A    between atoms: _198  and  _200
REMARK   85  A    between atoms: _200  and  _201
REMARK   86  A    between atoms: _200  and  _203
REMARK   87  A    between atoms: _203  and  _204
REMARK   88  A    between atoms: _204  and  _205
REMARK   89  A    between atoms: _207  and  _209
REMARK   90  A    between atoms: _209  and  _210
REMARK   91  A    between atoms: _209  and  _212
REMARK   92  A    between atoms: _212  and  _213
REMARK   93  A    between atoms: _213  and  _214
REMARK   94  A    between atoms: _214  and  _215
REMARK   95  A    between atoms: _215  and  _216
REMARK   96  A    between atoms: _220  and  _222
REMARK   97  A    between atoms: _222  and  _223
REMARK   98  A    between atoms: _222  and  _225
REMARK   99  A    between atoms: _225  and  _226
REMARK  100  A    between atoms: _229  and  _231
REMARK  101  A    between atoms: _231  and  _232
REMARK  102  A    between atoms: _231  and  _234
REMARK  103  A    between atoms: _234  and  _235
REMARK  104  A    between atoms: _238  and  _240
REMARK  105  A    between atoms: _240  and  _241
REMARK  106  A    between atoms: _240  and  _243
REMARK  107  A    between atoms: _246  and  _248
REMARK  108  A    between atoms: _248  and  _249
REMARK  109  A    between atoms: _248  and  _251
REMARK  110  A    between atoms: _251  and  _252
REMARK  111  A    between atoms: _252  and  _253
REMARK  112  A    between atoms: _258  and  _260
REMARK  113  A    between atoms: _260  and  _261
REMARK  114  A    between atoms: _260  and  _263
REMARK  115  A    between atoms: _263  and  _264
REMARK  116  A    between atoms: _267  and  _269
REMARK  117  A    between atoms: _269  and  _270
REMARK  118  A    between atoms: _269  and  _272
REMARK  119  A    between atoms: _272  and  _273
REMARK  120  A    between atoms: _276  and  _278
REMARK  121  A    between atoms: _278  and  _279
REMARK  122  A    between atoms: _281  and  _283
REMARK  123  A    between atoms: _283  and  _284
REMARK  124  A    between atoms: _283  and  _286
REMARK  125  A    between atoms: _286  and  _287
REMARK  126  A    between atoms: _292  and  _293
REMARK  127  A    between atoms: _295  and  _297
REMARK  128  A    between atoms: _297  and  _298
REMARK  129  A    between atoms: _297  and  _300
REMARK  130  A    between atoms: _300  and  _301
REMARK  131  A    between atoms: _304  and  _306
REMARK  132  A    between atoms: _306  and  _307
REMARK  133  A    between atoms: _306  and  _309
REMARK  134  A    between atoms: _312  and  _314
REMARK  135  A    between atoms: _314  and  _315
REMARK  136  A    between atoms: _314  and  _317
REMARK  137  A    between atoms: _317  and  _318
REMARK  138  A    between atoms: _321  and  _323
REMARK  139  A    between atoms: _323  and  _324
REMARK  140  A    between atoms: _323  and  _326
REMARK  141  A    between atoms: _326  and  _327
REMARK  142  A    between atoms: _327  and  _328
REMARK  143  A    between atoms: _331  and  _333
REMARK  144  A    between atoms: _333  and  _334
REMARK  145  A    between atoms: _333  and  _336
REMARK  146  A    between atoms: _336  and  _337
REMARK  147  A    between atoms: _342  and  _343
REMARK  148  A    between atoms: _345  and  _347
REMARK  149  A    between atoms: _347  and  _348
REMARK  150  A    between atoms: _347  and  _350
REMARK  151  A    between atoms: _350  and  _351
REMARK  152  A    between atoms: _351  and  _352
REMARK  153  A    between atoms: _355  and  _356
REMARK  154  A    between atoms: _361  and  _363
REMARK  155  A    between atoms: _363  and  _364
REMARK  156  A    between atoms: _363  and  _366
REMARK  157  A    between atoms: _366  and  _367
REMARK  158  A    between atoms: _372  and  _373
REMARK  159  A    between atoms: _375  and  _377
REMARK  160  A    between atoms: _377  and  _378
REMARK  161  A    between atoms: _380  and  _382
REMARK  162  A    between atoms: _382  and  _383
REMARK  163  A    between atoms: _382  and  _385
REMARK  164  A    between atoms: _385  and  _386
REMARK  165  A    between atoms: _391  and  _393
REMARK  166  A    between atoms: _393  and  _394
REMARK  167  A    between atoms: _393  and  _396
REMARK  168  A    between atoms: _396  and  _397
REMARK  169  A    between atoms: _400  and  _402
REMARK  170  A    between atoms: _402  and  _403
REMARK  171  A    between atoms: _402  and  _405
REMARK  172  A    between atoms: _405  and  _406
REMARK  173  A    between atoms: _411  and  _413
REMARK  174  A    between atoms: _413  and  _414
REMARK  175  A    between atoms: _413  and  _416
REMARK  176  A    between atoms: _416  and  _417
REMARK  177  A    between atoms: _423  and  _425
REMARK  178  A    between atoms: _425  and  _426
REMARK  179  A    between atoms: _425  and  _428
REMARK  180  A    between atoms: _428  and  _429
REMARK  181  A    between atoms: _432  and  _434
REMARK  182  A    between atoms: _434  and  _435
REMARK  183  A    between atoms: _434  and  _437
REMARK  184  A    between atoms: _437  and  _438
REMARK  185  A    between atoms: _443  and  _445
REMARK  186  A    between atoms: _445  and  _446
REMARK  187  A    between atoms: _445  and  _448
REMARK  188  A    between atoms: _448  and  _449
REMARK  189  A    between atoms: _449  and  _450
REMARK  190  A    between atoms: _450  and  _451
REMARK  191  A    between atoms: _460  and  _462
REMARK  192  A    between atoms: _462  and  _463
REMARK  193  A    between atoms: _462  and  _465
REMARK  194  A    between atoms: _465  and  _466
REMARK  195  A    between atoms: _469  and  _471
REMARK  196  A    between atoms: _471  and  _472
REMARK  197  A    between atoms: _471  and  _474
REMARK  198  A    between atoms: _474  and  _475
REMARK  199  A    between atoms: _475  and  _476
REMARK  200  A    between atoms: _476  and  _477
REMARK  201  A    between atoms: _486  and  _488
REMARK  202  A    between atoms: _488  and  _489
REMARK  203  A    between atoms: _488  and  _491
REMARK  204  A    between atoms: _491  and  _492
REMARK  205  A    between atoms: _497  and  _499
REMARK  206  A    between atoms: _499  and  _500
REMARK  207  A    between atoms: _499  and  _502
REMARK  208  A    between atoms: _504  and  _506
REMARK  209  A    between atoms: _506  and  _507
REMARK  210  A    between atoms: _506  and  _509
REMARK  211  A    between atoms: _509  and  _510
REMARK  212  A    between atoms: _513  and  _515
REMARK  213  A    between atoms: _515  and  _516
REMARK  214  A    between atoms: _515  and  _518
REMARK  215  A    between atoms: _521  and  _523
REMARK  216  A    between atoms: _523  and  _524
REMARK  217  A    between atoms: _523  and  _526
REMARK  218  A    between atoms: _526  and  _527
REMARK  219  A    between atoms: _527  and  _528
REMARK  220  A    between atoms: _528  and  _529
REMARK  221  A    between atoms: _529  and  _530
REMARK  222  A    between atoms: _534  and  _536
REMARK  223  A    between atoms: _536  and  _537
REMARK  224  A    between atoms: _536  and  _539
REMARK  225  A    between atoms: _542  and  _544
REMARK  226  A    between atoms: _544  and  _545
REMARK  227  A    between atoms: _548  and  _550
REMARK  228  A    between atoms: _550  and  _551
REMARK  229  A    between atoms: _550  and  _553
REMARK  230  A    between atoms: _553  and  _554
REMARK  231  A    between atoms: _557  and  _559
REMARK  232  A    between atoms: _559  and  _560
REMARK  233  A    between atoms: _559  and  _562
REMARK  234  A    between atoms: _562  and  _563
REMARK  235  A    between atoms: _569  and  _571
REMARK  236  A    between atoms: _571  and  _572
REMARK  237  A    between atoms: _574  and  _576
REMARK  238  A    between atoms: _576  and  _577
REMARK  239  A    between atoms: _576  and  _579
REMARK  240  A    between atoms: _579  and  _580
REMARK  241  A    between atoms: _583  and  _585
REMARK  242  A    between atoms: _585  and  _586
REMARK  243  A    between atoms: _585  and  _588
REMARK  244  A    between atoms: _588  and  _589
REMARK                            x       y       z     vdW  Elec       q    Type
REMARK                         _______ _______ _______ _____ _____    ______ ____
ROOT
ATOM      1  O   HOH     1      19.646  14.448  16.905  0.00  0.00    +0.000 OA
ENDROOT
TORSDOF 0
REMARK  Name = ../refined-set-2016/3gvu/3gvu_pocket.pdb
REMARK  244 active torsions:
REMARK  status: ('A' for Active; 'I' for Inactive)
REMARK    1  A    between atoms: _1  and  _3
REMARK    2  A    between atoms: _3  and  _4
REMARK    3  A    between atoms: _3  and  _6
REMARK    4  A    between atoms: _6  and  _7
REMARK    5  A    between atoms: _10  and  _12
REMARK    6  A    between atoms: _12  and  _13
REMARK    7  A    between atoms: _15  and  _17
REMARK    8  A    between atoms: _17  and  _18
REMARK    9  A    between atoms: _17  and  _20
REMARK   10  A    between atoms: _20  and  _21
REMARK   11  A    between atoms: _21  and  _22
REMARK   12  A    between atoms: _27  and  _29
REMARK   13  A    between atoms: _29  and  _30
REMARK   14  A    between atoms: _29  and  _32
REMARK   15  A    between atoms: _32  and  _33
REMARK   16  A    between atoms: _38  and  _39
REMARK   17  A    between atoms: _41  and  _43
REMARK   18  A    between atoms: _43  and  _44
REMARK   19  A    between atoms: _46  and  _48
REMARK   20  A    between atoms: _48  and  _49
REMARK   21  A    between atoms: _48  and  _51
REMARK   22  A    between atoms: _51  and  _52
REMARK   23  A    between atoms: _52  and  _53
REMARK   24  A    between atoms: _56  and  _58
REMARK   25  A    between atoms: _58  and  _59
REMARK   26  A    between atoms: _58  and  _61
REMARK   27  A    between atoms: _64  and  _66
REMARK   28  A    between atoms: _66  and  _67
REMARK   29  A    between atoms: _66  and  _69
REMARK   30  A    between atoms: _69  and  _70
REMARK   31  A    between atoms: _75  and  _76
REMARK   32  A    between atoms: _78  and  _80
REMARK   33  A    between atoms: _80  and  _81
REMARK   34  A    between atoms: _80  and  _83
REMARK   35  A    between atoms: _86  and  _88
REMARK   36  A    between atoms: _88  and  _89
REMARK   37  A    between atoms: _88  and  _91
REMARK   38  A    between atoms: _91  and  _92
REMARK   39  A    between atoms: _95  and  _97
REMARK   40  A    between atoms: _97  and  _98
REMARK   41  A    between atoms: _97  and  _100
REMARK   42  A    between atoms: _103  and  _105
REMARK   43  A    between atoms: _105  and  _106
REMARK   44  A    between atoms: _109  and  _111
REMARK   45  A    between atoms: _111  and  _112
REMARK   46  A    between atoms: _111  and  _114
REMARK   47  A    between atoms: _117  and  _119
REMARK   48  A    between atoms: _119  and  _120
REMARK   49  A    between atoms: _119  and  _122
REMARK   50  A    between atoms: _122  and  _123
REMARK   51  A    between atoms: _123  and  _124
REMARK   52  A    between atoms: _124  and  _125
REMARK   53  A    between atoms: _125  and  _126
REMARK   54  A    between atoms: _130  and  _132
REMARK   55  A    between atoms: _132  and  _133
REMARK   56  A    between atoms: _132  and  _135
REMARK   57  A    between atoms: _135  and  _136
REMARK   58  A    between atoms: _139  and  _141
REMARK   59  A    between atoms: _141  and  _142
REMARK   60  A    between atoms: _141  and  _144
REMARK   61  A    between atoms: _144  and  _145
REMARK   62  A    between atoms: _145  and  _146
REMARK   63  A    between atoms: _149  and  _151
REMARK   64  A    between atoms: _151  and  _152
REMARK   65  A    between atoms: _151  and  _154
REMARK   66  A    between atoms: _154  and  _155
REMARK   67  A    between atoms: _161  and  _163
REMARK   68  A    between atoms: _163  and  _164
REMARK   69  A    between atoms: _163  and  _166
REMARK   70  A    between atoms: _166  and  _167
REMARK   71  A    between atoms: _167  and  _168
REMARK   72  A    between atoms: _168  and  _169
REMARK   73  A    between atoms: _169  and  _170
REMARK   74  A    between atoms: _174  and  _176
REMARK   75  A    between atoms: _176  and  _177
REMARK   76  A    between atoms: _176  and  _179
REMARK   77  A    between atoms: _179  and  _180
REMARK   78  A    between atoms: _180  and  _181
REMARK   79  A    between atoms: _184  and  _186
REMARK   80  A    between atoms: _186  and  _187
REMARK   81  A    between atoms: _190  and  _192
REMARK   82  A    between atoms: _192  and  _193
REMARK   83  A    between atoms: _192  and  _195
REMARK   84  A    between atoms: _198  and  _200
REMARK   85  A    between atoms: _200  and  _201
REMARK   86  A    between atoms: _200  and  _203
REMARK   87  A    between atoms: _203  and  _204
REMARK   88  A    between atoms: _204  and  _205
REMARK   89  A    between atoms: _207  and  _209
REMARK   90  A    between atoms: _209  and  _210
REMARK   91  A    between atoms: _209  and  _212
REMARK   92  A    between atoms: _212  and  _213
REMARK   93  A    between atoms: _213  and  _214
REMARK   94  A    between atoms: _214  and  _215
REMARK   95  A    between atoms: _215  and  _216
REMARK   96  A    between atoms: _220  and  _222
REMARK   97  A    between atoms: _222  and  _223
REMARK   98  A    between atoms: _222  and  _225
REMARK   99  A    between atoms: _225  and  _226
REMARK  100  A    between atoms: _229  and  _231
REMARK  101  A    between atoms: _231  and  _232
REMARK  102  A    between atoms: _231  and  _234
REMARK  103  A    between atoms: _234  and  _235
REMARK  104  A    between atoms: _238  and  _240
REMARK  105  A    between atoms: _240  and  _241
REMARK  106  A    between atoms: _240  and  _243
REMARK  107  A    between atoms: _246  and  _248
REMARK  108  A    between atoms: _248  and  _249
REMARK  109  A    between atoms: _248  and  _251
REMARK  110  A    between atoms: _251  and  _252
REMARK  111  A    between atoms: _252  and  _253
REMARK  112  A    between atoms: _258  and  _260
REMARK  113  A    between atoms: _260  and  _261
REMARK  114  A    between atoms: _260  and  _263
REMARK  115  A    between atoms: _263  and  _264
REMARK  116  A    between atoms: _267  and  _269
REMARK  117  A    between atoms: _269  and  _270
REMARK  118  A    between atoms: _269  and  _272
REMARK  119  A    between atoms: _272  and  _273
REMARK  120  A    between atoms: _276  and  _278
REMARK  121  A    between atoms: _278  and  _279
REMARK  122  A    between atoms: _281  and  _283
REMARK  123  A    between atoms: _283  and  _284
REMARK  124  A    between atoms: _283  and  _286
REMARK  125  A    between atoms: _286  and  _287
REMARK  126  A    between atoms: _292  and  _293
REMARK  127  A    between atoms: _295  and  _297
REMARK  128  A    between atoms: _297  and  _298
REMARK  129  A    between atoms: _297  and  _300
REMARK  130  A    between atoms: _300  and  _301
REMARK  131  A    between atoms: _304  and  _306
REMARK  132  A    between atoms: _306  and  _307
REMARK  133  A    between atoms: _306  and  _309
REMARK  134  A    between atoms: _312  and  _314
REMARK  135  A    between atoms: _314  and  _315
REMARK  136  A    between atoms: _314  and  _317
REMARK  137  A    between atoms: _317  and  _318
REMARK  138  A    between atoms: _321  and  _323
REMARK  139  A    between atoms: _323  and  _324
REMARK  140  A    between atoms: _323  and  _326
REMARK  141  A    between atoms: _326  and  _327
REMARK  142  A    between atoms: _327  and  _328
REMARK  143  A    between atoms: _331  and  _333
REMARK  144  A    between atoms: _333  and  _334
REMARK  145  A    between atoms: _333  and  _336
REMARK  146  A    between atoms: _336  and  _337
REMARK  147  A    between atoms: _342  and  _343
REMARK  148  A    between atoms: _345  and  _347
REMARK  149  A    between atoms: _347  and  _348
REMARK  150  A    between atoms: _347  and  _350
REMARK  151  A    between atoms: _350  and  _351
REMARK  152  A    between atoms: _351  and  _352
REMARK  153  A    between atoms: _355  and  _356
REMARK  154  A    between atoms: _361  and  _363
REMARK  155  A    between atoms: _363  and  _364
REMARK  156  A    between atoms: _363  and  _366
REMARK  157  A    between atoms: _366  and  _367
REMARK  158  A    between atoms: _372  and  _373
REMARK  159  A    between atoms: _375  and  _377
REMARK  160  A    between atoms: _377  and  _378
REMARK  161  A    between atoms: _380  and  _382
REMARK  162  A    between atoms: _382  and  _383
REMARK  163  A    between atoms: _382  and  _385
REMARK  164  A    between atoms: _385  and  _386
REMARK  165  A    between atoms: _391  and  _393
REMARK  166  A    between atoms: _393  and  _394
REMARK  167  A    between atoms: _393  and  _396
REMARK  168  A    between atoms: _396  and  _397
REMARK  169  A    between atoms: _400  and  _402
REMARK  170  A    between atoms: _402  and  _403
REMARK  171  A    between atoms: _402  and  _405
REMARK  172  A    between atoms: _405  and  _406
REMARK  173  A    between atoms: _411  and  _413
REMARK  174  A    between atoms: _413  and  _414
REMARK  175  A    between atoms: _413  and  _416
REMARK  176  A    between atoms: _416  and  _417
REMARK  177  A    between atoms: _423  and  _425
REMARK  178  A    between atoms: _425  and  _426
REMARK  179  A    between atoms: _425  and  _428
REMARK  180  A    between atoms: _428  and  _429
REMARK  181  A    between atoms: _432  and  _434
REMARK  182  A    between atoms: _434  and  _435
REMARK  183  A    between atoms: _434  and  _437
REMARK  184  A    between atoms: _437  and  _438
REMARK  185  A    between atoms: _443  and  _445
REMARK  186  A    between atoms: _445  and  _446
REMARK  187  A    between atoms: _445  and  _448
REMARK  188  A    between atoms: _448  and  _449
REMARK  189  A    between atoms: _449  and  _450
REMARK  190  A    between atoms: _450  and  _451
REMARK  191  A    between atoms: _460  and  _462
REMARK  192  A    between atoms: _462  and  _463
REMARK  193  A    between atoms: _462  and  _465
REMARK  194  A    between atoms: _465  and  _466
REMARK  195  A    between atoms: _469  and  _471
REMARK  196  A    between atoms: _471  and  _472
REMARK  197  A    between atoms: _471  and  _474
REMARK  198  A    between atoms: _474  and  _475
REMARK  199  A    between atoms: _475  and  _476
REMARK  200  A    between atoms: _476  and  _477
REMARK  201  A    between atoms: _486  and  _488
REMARK  202  A    between atoms: _488  and  _489
REMARK  203  A    between atoms: _488  and  _491
REMARK  204  A    between atoms: _491  and  _492
REMARK  205  A    between atoms: _497  and  _499
REMARK  206  A    between atoms: _499  and  _500
REMARK  207  A    between atoms: _499  and  _502
REMARK  208  A    between atoms: _504  and  _506
REMARK  209  A    between atoms: _506  and  _507
REMARK  210  A    between atoms: _506  and  _509
REMARK  211  A    between atoms: _509  and  _510
REMARK  212  A    between atoms: _513  and  _515
REMARK  213  A    between atoms: _515  and  _516
REMARK  214  A    between atoms: _515  and  _518
REMARK  215  A    between atoms: _521  and  _523
REMARK  216  A    between atoms: _523  and  _524
REMARK  217  A    between atoms: _523  and  _526
REMARK  218  A    between atoms: _526  and  _527
REMARK  219  A    between atoms: _527  and  _528
REMARK  220  A    between atoms: _528  and  _529
REMARK  221  A    between atoms: _529  and  _530
REMARK  222  A    between atoms: _534  and  _536
REMARK  223  A    between atoms: _536  and  _537
REMARK  224  A    between atoms: _536  and  _539
REMARK  225  A    between atoms: _542  and  _544
REMARK  226  A    between atoms: _544  and  _545
REMARK  227  A    between atoms: _548  and  _550
REMARK  228  A    between atoms: _550  and  _551
REMARK  229  A    between atoms: _550  and  _553
REMARK  230  A    between atoms: _553  and  _554
REMARK  231  A    between atoms: _557  and  _559
REMARK  232  A    between atoms: _559  and  _560
REMARK  233  A    between atoms: _559  and  _562
REMARK  234  A    between atoms: _562  and  _563
REMARK  235  A    between atoms: _569  and  _571
REMARK  236  A    between atoms: _571  and  _572
REMARK  237  A    between atoms: _574  and  _576
REMARK  238  A    between atoms: _576  and  _577
REMARK  239  A    between atoms: _576  and  _579
REMARK  240  A    between atoms: _579  and  _580
REMARK  241  A    between atoms: _583  and  _585
REMARK  242  A    between atoms: _585  and  _586
REMARK  243  A    between atoms: _585  and  _588
REMARK  244  A    between atoms: _588  and  _589
REMARK                            x       y       z     vdW  Elec       q    Type
REMARK                         _______ _______ _______ _____ _____    ______ ____
ROOT
ATOM      1  O   HOH     1       8.823  15.323  25.691  0.00  0.00    +0.000 OA
ENDROOT
TORSDOF 0
REMARK  Name = ../refined-set-2016/3gvu/3gvu_pocket.pdb
REMARK  244 active torsions:
REMARK  status: ('A' for Active; 'I' for Inactive)
REMARK    1  A    between atoms: _1  and  _3
REMARK    2  A    between atoms: _3  and  _4
REMARK    3  A    between atoms: _3  and  _6
REMARK    4  A    between atoms: _6  and  _7
REMARK    5  A    between atoms: _10  and  _12
REMARK    6  A    between atoms: _12  and  _13
REMARK    7  A    between atoms: _15  and  _17
REMARK    8  A    between atoms: _17  and  _18
REMARK    9  A    between atoms: _17  and  _20
REMARK   10  A    between atoms: _20  and  _21
REMARK   11  A    between atoms: _21  and  _22
REMARK   12  A    between atoms: _27  and  _29
REMARK   13  A    between atoms: _29  and  _30
REMARK   14  A    between atoms: _29  and  _32
REMARK   15  A    between atoms: _32  and  _33
REMARK   16  A    between atoms: _38  and  _39
REMARK   17  A    between atoms: _41  and  _43
REMARK   18  A    between atoms: _43  and  _44
REMARK   19  A    between atoms: _46  and  _48
REMARK   20  A    between atoms: _48  and  _49
REMARK   21  A    between atoms: _48  and  _51
REMARK   22  A    between atoms: _51  and  _52
REMARK   23  A    between atoms: _52  and  _53
REMARK   24  A    between atoms: _56  and  _58
REMARK   25  A    between atoms: _58  and  _59
REMARK   26  A    between atoms: _58  and  _61
REMARK   27  A    between atoms: _64  and  _66
REMARK   28  A    between atoms: _66  and  _67
REMARK   29  A    between atoms: _66  and  _69
REMARK   30  A    between atoms: _69  and  _70
REMARK   31  A    between atoms: _75  and  _76
REMARK   32  A    between atoms: _78  and  _80
REMARK   33  A    between atoms: _80  and  _81
REMARK   34  A    between atoms: _80  and  _83
REMARK   35  A    between atoms: _86  and  _88
REMARK   36  A    between atoms: _88  and  _89
REMARK   37  A    between atoms: _88  and  _91
REMARK   38  A    between atoms: _91  and  _92
REMARK   39  A    between atoms: _95  and  _97
REMARK   40  A    between atoms: _97  and  _98
REMARK   41  A    between atoms: _97  and  _100
REMARK   42  A    between atoms: _103  and  _105
REMARK   43  A    between atoms: _105  and  _106
REMARK   44  A    between atoms: _109  and  _111
REMARK   45  A    between atoms: _111  and  _112
REMARK   46  A    between atoms: _111  and  _114
REMARK   47  A    between atoms: _117  and  _119
REMARK   48  A    between atoms: _119  and  _120
REMARK   49  A    between atoms: _119  and  _122
REMARK   50  A    between atoms: _122  and  _123
REMARK   51  A    between atoms: _123  and  _124
REMARK   52  A    between atoms: _124  and  _125
REMARK   53  A    between atoms: _125  and  _126
REMARK   54  A    between atoms: _130  and  _132
REMARK   55  A    between atoms: _132  and  _133
REMARK   56  A    between atoms: _132  and  _135
REMARK   57  A    between atoms: _135  and  _136
REMARK   58  A    between atoms: _139  and  _141
REMARK   59  A    between atoms: _141  and  _142
REMARK   60  A    between atoms: _141  and  _144
REMARK   61  A    between atoms: _144  and  _145
REMARK   62  A    between atoms: _145  and  _146
REMARK   63  A    between atoms: _149  and  _151
REMARK   64  A    between atoms: _151  and  _152
REMARK   65  A    between atoms: _151  and  _154
REMARK   66  A    between atoms: _154  and  _155
REMARK   67  A    between atoms: _161  and  _163
REMARK   68  A    between atoms: _163  and  _164
REMARK   69  A    between atoms: _163  and  _166
REMARK   70  A    between atoms: _166  and  _167
REMARK   71  A    between atoms: _167  and  _168
REMARK   72  A    between atoms: _168  and  _169
REMARK   73  A    between atoms: _169  and  _170
REMARK   74  A    between atoms: _174  and  _176
REMARK   75  A    between atoms: _176  and  _177
REMARK   76  A    between atoms: _176  and  _179
REMARK   77  A    between atoms: _179  and  _180
REMARK   78  A    between atoms: _180  and  _181
REMARK   79  A    between atoms: _184  and  _186
REMARK   80  A    between atoms: _186  and  _187
REMARK   81  A    between atoms: _190  and  _192
REMARK   82  A    between atoms: _192  and  _193
REMARK   83  A    between atoms: _192  and  _195
REMARK   84  A    between atoms: _198  and  _200
REMARK   85  A    between atoms: _200  and  _201
REMARK   86  A    between atoms: _200  and  _203
REMARK   87  A    between atoms: _203  and  _204
REMARK   88  A    between atoms: _204  and  _205
REMARK   89  A    between atoms: _207  and  _209
REMARK   90  A    between atoms: _209  and  _210
REMARK   91  A    between atoms: _209  and  _212
REMARK   92  A    between atoms: _212  and  _213
REMARK   93  A    between atoms: _213  and  _214
REMARK   94  A    between atoms: _214  and  _215
REMARK   95  A    between atoms: _215  and  _216
REMARK   96  A    between atoms: _220  and  _222
REMARK   97  A    between atoms: _222  and  _223
REMARK   98  A    between atoms: _222  and  _225
REMARK   99  A    between atoms: _225  and  _226
REMARK  100  A    between atoms: _229  and  _231
REMARK  101  A    between atoms: _231  and  _232
REMARK  102  A    between atoms: _231  and  _234
REMARK  103  A    between atoms: _234  and  _235
REMARK  104  A    between atoms: _238  and  _240
REMARK  105  A    between atoms: _240  and  _241
REMARK  106  A    between atoms: _240  and  _243
REMARK  107  A    between atoms: _246  and  _248
REMARK  108  A    between atoms: _248  and  _249
REMARK  109  A    between atoms: _248  and  _251
REMARK  110  A    between atoms: _251  and  _252
REMARK  111  A    between atoms: _252  and  _253
REMARK  112  A    between atoms: _258  and  _260
REMARK  113  A    between atoms: _260  and  _261
REMARK  114  A    between atoms: _260  and  _263
REMARK  115  A    between atoms: _263  and  _264
REMARK  116  A    between atoms: _267  and  _269
REMARK  117  A    between atoms: _269  and  _270
REMARK  118  A    between atoms: _269  and  _272
REMARK  119  A    between atoms: _272  and  _273
REMARK  120  A    between atoms: _276  and  _278
REMARK  121  A    between atoms: _278  and  _279
REMARK  122  A    between atoms: _281  and  _283
REMARK  123  A    between atoms: _283  and  _284
REMARK  124  A    between atoms: _283  and  _286
REMARK  125  A    between atoms: _286  and  _287
REMARK  126  A    between atoms: _292  and  _293
REMARK  127  A    between atoms: _295  and  _297
REMARK  128  A    between atoms: _297  and  _298
REMARK  129  A    between atoms: _297  and  _300
REMARK  130  A    between atoms: _300  and  _301
REMARK  131  A    between atoms: _304  and  _306
REMARK  132  A    between atoms: _306  and  _307
REMARK  133  A    between atoms: _306  and  _309
REMARK  134  A    between atoms: _312  and  _314
REMARK  135  A    between atoms: _314  and  _315
REMARK  136  A    between atoms: _314  and  _317
REMARK  137  A    between atoms: _317  and  _318
REMARK  138  A    between atoms: _321  and  _323
REMARK  139  A    between atoms: _323  and  _324
REMARK  140  A    between atoms: _323  and  _326
REMARK  141  A    between atoms: _326  and  _327
REMARK  142  A    between atoms: _327  and  _328
REMARK  143  A    between atoms: _331  and  _333
REMARK  144  A    between atoms: _333  and  _334
REMARK  145  A    between atoms: _333  and  _336
REMARK  146  A    between atoms: _336  and  _337
REMARK  147  A    between atoms: _342  and  _343
REMARK  148  A    between atoms: _345  and  _347
REMARK  149  A    between atoms: _347  and  _348
REMARK  150  A    between atoms: _347  and  _350
REMARK  151  A    between atoms: _350  and  _351
REMARK  152  A    between atoms: _351  and  _352
REMARK  153  A    between atoms: _355  and  _356
REMARK  154  A    between atoms: _361  and  _363
REMARK  155  A    between atoms: _363  and  _364
REMARK  156  A    between atoms: _363  and  _366
REMARK  157  A    between atoms: _366  and  _367
REMARK  158  A    between atoms: _372  and  _373
REMARK  159  A    between atoms: _375  and  _377
REMARK  160  A    between atoms: _377  and  _378
REMARK  161  A    between atoms: _380  and  _382
REMARK  162  A    between atoms: _382  and  _383
REMARK  163  A    between atoms: _382  and  _385
REMARK  164  A    between atoms: _385  and  _386
REMARK  165  A    between atoms: _391  and  _393
REMARK  166  A    between atoms: _393  and  _394
REMARK  167  A    between atoms: _393  and  _396
REMARK  168  A    between atoms: _396  and  _397
REMARK  169  A    between atoms: _400  and  _402
REMARK  170  A    between atoms: _402  and  _403
REMARK  171  A    between atoms: _402  and  _405
REMARK  172  A    between atoms: _405  and  _406
REMARK  173  A    between atoms: _411  and  _413
REMARK  174  A    between atoms: _413  and  _414
REMARK  175  A    between atoms: _413  and  _416
REMARK  176  A    between atoms: _416  and  _417
REMARK  177  A    between atoms: _423  and  _425
REMARK  178  A    between atoms: _425  and  _426
REMARK  179  A    between atoms: _425  and  _428
REMARK  180  A    between atoms: _428  and  _429
REMARK  181  A    between atoms: _432  and  _434
REMARK  182  A    between atoms: _434  and  _435
REMARK  183  A    between atoms: _434  and  _437
REMARK  184  A    between atoms: _437  and  _438
REMARK  185  A    between atoms: _443  and  _445
REMARK  186  A    between atoms: _445  and  _446
REMARK  187  A    between atoms: _445  and  _448
REMARK  188  A    between atoms: _448  and  _449
REMARK  189  A    between atoms: _449  and  _450
REMARK  190  A    between atoms: _450  and  _451
REMARK  191  A    between atoms: _460  and  _462
REMARK  192  A    between atoms: _462  and  _463
REMARK  193  A    between atoms: _462  and  _465
REMARK  194  A    between atoms: _465  and  _466
REMARK  195  A    between atoms: _469  and  _471
REMARK  196  A    between atoms: _471  and  _472
REMARK  197  A    between atoms: _471  and  _474
REMARK  198  A    between atoms: _474  and  _475
REMARK  199  A    between atoms: _475  and  _476
REMARK  200  A    between atoms: _476  and  _477
REMARK  201  A    between atoms: _486  and  _488
REMARK  202  A    between atoms: _488  and  _489
REMARK  203  A    between atoms: _488  and  _491
REMARK  204  A    between atoms: _491  and  _492
REMARK  205  A    between atoms: _497  and  _499
REMARK  206  A    between atoms: _499  and  _500
REMARK  207  A    between atoms: _499  and  _502
REMARK  208  A    between atoms: _504  and  _506
REMARK  209  A    between atoms: _506  and  _507
REMARK  210  A    between atoms: _506  and  _509
REMARK  211  A    between atoms: _509  and  _510
REMARK  212  A    between atoms: _513  and  _515
REMARK  213  A    between atoms: _515  and  _516
REMARK  214  A    between atoms: _515  and  _518
REMARK  215  A    between atoms: _521  and  _523
REMARK  216  A    between atoms: _523  and  _524
REMARK  217  A    between atoms: _523  and  _526
REMARK  218  A    between atoms: _526  and  _527
REMARK  219  A    between atoms: _527  and  _528
REMARK  220  A    between atoms: _528  and  _529
REMARK  221  A    between atoms: _529  and  _530
REMARK  222  A    between atoms: _534  and  _536
REMARK  223  A    between atoms: _536  and  _537
REMARK  224  A    between atoms: _536  and  _539
REMARK  225  A    between atoms: _542  and  _544
REMARK  226  A    between atoms: _544  and  _545
REMARK  227  A    between atoms: _548  and  _550
REMARK  228  A    between atoms: _550  and  _551
REMARK  229  A    between atoms: _550  and  _553
REMARK  230  A    between atoms: _553  and  _554
REMARK  231  A    between atoms: _557  and  _559
REMARK  232  A    between atoms: _559  and  _560
REMARK  233  A    between atoms: _559  and  _562
REMARK  234  A    between atoms: _562  and  _563
REMARK  235  A    between atoms: _569  and  _571
REMARK  236  A    between atoms: _571  and  _572
REMARK  237  A    between atoms: _574  and  _576
REMARK  238  A    between atoms: _576  and  _577
REMARK  239  A    between atoms: _576  and  _579
REMARK  240  A    between atoms: _579  and  _580
REMARK  241  A    between atoms: _583  and  _585
REMARK  242  A    between atoms: _585  and  _586
REMARK  243  A    between atoms: _585  and  _588
REMARK  244  A    between atoms: _588  and  _589
REMARK                            x       y       z     vdW  Elec       q    Type
REMARK                         _______ _______ _______ _____ _____    ______ ____
ROOT
ATOM      1  O   HOH     1      12.505  11.538  17.681  0.00  0.00    +0.000 OA
ENDROOT
TORSDOF 0
REMARK  Name = ../refined-set-2016/3gvu/3gvu_pocket.pdb
REMARK  244 active torsions:
REMARK  status: ('A' for Active; 'I' for Inactive)
REMARK    1  A    between atoms: _1  and  _3
REMARK    2  A    between atoms: _3  and  _4
REMARK    3  A    between atoms: _3  and  _6
REMARK    4  A    between atoms: _6  and  _7
REMARK    5  A    between atoms: _10  and  _12
REMARK    6  A    between atoms: _12  and  _13
REMARK    7  A    between atoms: _15  and  _17
REMARK    8  A    between atoms: _17  and  _18
REMARK    9  A    between atoms: _17  and  _20
REMARK   10  A    between atoms: _20  and  _21
REMARK   11  A    between atoms: _21  and  _22
REMARK   12  A    between atoms: _27  and  _29
REMARK   13  A    between atoms: _29  and  _30
REMARK   14  A    between atoms: _29  and  _32
REMARK   15  A    between atoms: _32  and  _33
REMARK   16  A    between atoms: _38  and  _39
REMARK   17  A    between atoms: _41  and  _43
REMARK   18  A    between atoms: _43  and  _44
REMARK   19  A    between atoms: _46  and  _48
REMARK   20  A    between atoms: _48  and  _49
REMARK   21  A    between atoms: _48  and  _51
REMARK   22  A    between atoms: _51  and  _52
REMARK   23  A    between atoms: _52  and  _53
REMARK   24  A    between atoms: _56  and  _58
REMARK   25  A    between atoms: _58  and  _59
REMARK   26  A    between atoms: _58  and  _61
REMARK   27  A    between atoms: _64  and  _66
REMARK   28  A    between atoms: _66  and  _67
REMARK   29  A    between atoms: _66  and  _69
REMARK   30  A    between atoms: _69  and  _70
REMARK   31  A    between atoms: _75  and  _76
REMARK   32  A    between atoms: _78  and  _80
REMARK   33  A    between atoms: _80  and  _81
REMARK   34  A    between atoms: _80  and  _83
REMARK   35  A    between atoms: _86  and  _88
REMARK   36  A    between atoms: _88  and  _89
REMARK   37  A    between atoms: _88  and  _91
REMARK   38  A    between atoms: _91  and  _92
REMARK   39  A    between atoms: _95  and  _97
REMARK   40  A    between atoms: _97  and  _98
REMARK   41  A    between atoms: _97  and  _100
REMARK   42  A    between atoms: _103  and  _105
REMARK   43  A    between atoms: _105  and  _106
REMARK   44  A    between atoms: _109  and  _111
REMARK   45  A    between atoms: _111  and  _112
REMARK   46  A    between atoms: _111  and  _114
REMARK   47  A    between atoms: _117  and  _119
REMARK   48  A    between atoms: _119  and  _120
REMARK   49  A    between atoms: _119  and  _122
REMARK   50  A    between atoms: _122  and  _123
REMARK   51  A    between atoms: _123  and  _124
REMARK   52  A    between atoms: _124  and  _125
REMARK   53  A    between atoms: _125  and  _126
REMARK   54  A    between atoms: _130  and  _132
REMARK   55  A    between atoms: _132  and  _133
REMARK   56  A    between atoms: _132  and  _135
REMARK   57  A    between atoms: _135  and  _136
REMARK   58  A    between atoms: _139  and  _141
REMARK   59  A    between atoms: _141  and  _142
REMARK   60  A    between atoms: _141  and  _144
REMARK   61  A    between atoms: _144  and  _145
REMARK   62  A    between atoms: _145  and  _146
REMARK   63  A    between atoms: _149  and  _151
REMARK   64  A    between atoms: _151  and  _152
REMARK   65  A    between atoms: _151  and  _154
REMARK   66  A    between atoms: _154  and  _155
REMARK   67  A    between atoms: _161  and  _163
REMARK   68  A    between atoms: _163  and  _164
REMARK   69  A    between atoms: _163  and  _166
REMARK   70  A    between atoms: _166  and  _167
REMARK   71  A    between atoms: _167  and  _168
REMARK   72  A    between atoms: _168  and  _169
REMARK   73  A    between atoms: _169  and  _170
REMARK   74  A    between atoms: _174  and  _176
REMARK   75  A    between atoms: _176  and  _177
REMARK   76  A    between atoms: _176  and  _179
REMARK   77  A    between atoms: _179  and  _180
REMARK   78  A    between atoms: _180  and  _181
REMARK   79  A    between atoms: _184  and  _186
REMARK   80  A    between atoms: _186  and  _187
REMARK   81  A    between atoms: _190  and  _192
REMARK   82  A    between atoms: _192  and  _193
REMARK   83  A    between atoms: _192  and  _195
REMARK   84  A    between atoms: _198  and  _200
REMARK   85  A    between atoms: _200  and  _201
REMARK   86  A    between atoms: _200  and  _203
REMARK   87  A    between atoms: _203  and  _204
REMARK   88  A    between atoms: _204  and  _205
REMARK   89  A    between atoms: _207  and  _209
REMARK   90  A    between atoms: _209  and  _210
REMARK   91  A    between atoms: _209  and  _212
REMARK   92  A    between atoms: _212  and  _213
REMARK   93  A    between atoms: _213  and  _214
REMARK   94  A    between atoms: _214  and  _215
REMARK   95  A    between atoms: _215  and  _216
REMARK   96  A    between atoms: _220  and  _222
REMARK   97  A    between atoms: _222  and  _223
REMARK   98  A    between atoms: _222  and  _225
REMARK   99  A    between atoms: _225  and  _226
REMARK  100  A    between atoms: _229  and  _231
REMARK  101  A    between atoms: _231  and  _232
REMARK  102  A    between atoms: _231  and  _234
REMARK  103  A    between atoms: _234  and  _235
REMARK  104  A    between atoms: _238  and  _240
REMARK  105  A    between atoms: _240  and  _241
REMARK  106  A    between atoms: _240  and  _243
REMARK  107  A    between atoms: _246  and  _248
REMARK  108  A    between atoms: _248  and  _249
REMARK  109  A    between atoms: _248  and  _251
REMARK  110  A    between atoms: _251  and  _252
REMARK  111  A    between atoms: _252  and  _253
REMARK  112  A    between atoms: _258  and  _260
REMARK  113  A    between atoms: _260  and  _261
REMARK  114  A    between atoms: _260  and  _263
REMARK  115  A    between atoms: _263  and  _264
REMARK  116  A    between atoms: _267  and  _269
REMARK  117  A    between atoms: _269  and  _270
REMARK  118  A    between atoms: _269  and  _272
REMARK  119  A    between atoms: _272  and  _273
REMARK  120  A    between atoms: _276  and  _278
REMARK  121  A    between atoms: _278  and  _279
REMARK  122  A    between atoms: _281  and  _283
REMARK  123  A    between atoms: _283  and  _284
REMARK  124  A    between atoms: _283  and  _286
REMARK  125  A    between atoms: _286  and  _287
REMARK  126  A    between atoms: _292  and  _293
REMARK  127  A    between atoms: _295  and  _297
REMARK  128  A    between atoms: _297  and  _298
REMARK  129  A    between atoms: _297  and  _300
REMARK  130  A    between atoms: _300  and  _301
REMARK  131  A    between atoms: _304  and  _306
REMARK  132  A    between atoms: _306  and  _307
REMARK  133  A    between atoms: _306  and  _309
REMARK  134  A    between atoms: _312  and  _314
REMARK  135  A    between atoms: _314  and  _315
REMARK  136  A    between atoms: _314  and  _317
REMARK  137  A    between atoms: _317  and  _318
REMARK  138  A    between atoms: _321  and  _323
REMARK  139  A    between atoms: _323  and  _324
REMARK  140  A    between atoms: _323  and  _326
REMARK  141  A    between atoms: _326  and  _327
REMARK  142  A    between atoms: _327  and  _328
REMARK  143  A    between atoms: _331  and  _333
REMARK  144  A    between atoms: _333  and  _334
REMARK  145  A    between atoms: _333  and  _336
REMARK  146  A    between atoms: _336  and  _337
REMARK  147  A    between atoms: _342  and  _343
REMARK  148  A    between atoms: _345  and  _347
REMARK  149  A    between atoms: _347  and  _348
REMARK  150  A    between atoms: _347  and  _350
REMARK  151  A    between atoms: _350  and  _351
REMARK  152  A    between atoms: _351  and  _352
REMARK  153  A    between atoms: _355  and  _356
REMARK  154  A    between atoms: _361  and  _363
REMARK  155  A    between atoms: _363  and  _364
REMARK  156  A    between atoms: _363  and  _366
REMARK  157  A    between atoms: _366  and  _367
REMARK  158  A    between atoms: _372  and  _373
REMARK  159  A    between atoms: _375  and  _377
REMARK  160  A    between atoms: _377  and  _378
REMARK  161  A    between atoms: _380  and  _382
REMARK  162  A    between atoms: _382  and  _383
REMARK  163  A    between atoms: _382  and  _385
REMARK  164  A    between atoms: _385  and  _386
REMARK  165  A    between atoms: _391  and  _393
REMARK  166  A    between atoms: _393  and  _394
REMARK  167  A    between atoms: _393  and  _396
REMARK  168  A    between atoms: _396  and  _397
REMARK  169  A    between atoms: _400  and  _402
REMARK  170  A    between atoms: _402  and  _403
REMARK  171  A    between atoms: _402  and  _405
REMARK  172  A    between atoms: _405  and  _406
REMARK  173  A    between atoms: _411  and  _413
REMARK  174  A    between atoms: _413  and  _414
REMARK  175  A    between atoms: _413  and  _416
REMARK  176  A    between atoms: _416  and  _417
REMARK  177  A    between atoms: _423  and  _425
REMARK  178  A    between atoms: _425  and  _426
REMARK  179  A    between atoms: _425  and  _428
REMARK  180  A    between atoms: _428  and  _429
REMARK  181  A    between atoms: _432  and  _434
REMARK  182  A    between atoms: _434  and  _435
REMARK  183  A    between atoms: _434  and  _437
REMARK  184  A    between atoms: _437  and  _438
REMARK  185  A    between atoms: _443  and  _445
REMARK  186  A    between atoms: _445  and  _446
REMARK  187  A    between atoms: _445  and  _448
REMARK  188  A    between atoms: _448  and  _449
REMARK  189  A    between atoms: _449  and  _450
REMARK  190  A    between atoms: _450  and  _451
REMARK  191  A    between atoms: _460  and  _462
REMARK  192  A    between atoms: _462  and  _463
REMARK  193  A    between atoms: _462  and  _465
REMARK  194  A    between atoms: _465  and  _466
REMARK  195  A    between atoms: _469  and  _471
REMARK  196  A    between atoms: _471  and  _472
REMARK  197  A    between atoms: _471  and  _474
REMARK  198  A    between atoms: _474  and  _475
REMARK  199  A    between atoms: _475  and  _476
REMARK  200  A    between atoms: _476  and  _477
REMARK  201  A    between atoms: _486  and  _488
REMARK  202  A    between atoms: _488  and  _489
REMARK  203  A    between atoms: _488  and  _491
REMARK  204  A    between atoms: _491  and  _492
REMARK  205  A    between atoms: _497  and  _499
REMARK  206  A    between atoms: _499  and  _500
REMARK  207  A    between atoms: _499  and  _502
REMARK  208  A    between atoms: _504  and  _506
REMARK  209  A    between atoms: _506  and  _507
REMARK  210  A    between atoms: _506  and  _509
REMARK  211  A    between atoms: _509  and  _510
REMARK  212  A    between atoms: _513  and  _515
REMARK  213  A    between atoms: _515  and  _516
REMARK  214  A    between atoms: _515  and  _518
REMARK  215  A    between atoms: _521  and  _523
REMARK  216  A    between atoms: _523  and  _524
REMARK  217  A    between atoms: _523  and  _526
REMARK  218  A    between atoms: _526  and  _527
REMARK  219  A    between atoms: _527  and  _528
REMARK  220  A    between atoms: _528  and  _529
REMARK  221  A    between atoms: _529  and  _530
REMARK  222  A    between atoms: _534  and  _536
REMARK  223  A    between atoms: _536  and  _537
REMARK  224  A    between atoms: _536  and  _539
REMARK  225  A    between atoms: _542  and  _544
REMARK  226  A    between atoms: _544  and  _545
REMARK  227  A    between atoms: _548  and  _550
REMARK  228  A    between atoms: _550  and  _551
REMARK  229  A    between atoms: _550  and  _553
REMARK  230  A    between atoms: _553  and  _554
REMARK  231  A    between atoms: _557  and  _559
REMARK  232  A    between atoms: _559  and  _560
REMARK  233  A    between atoms: _559  and  _562
REMARK  234  A    between atoms: _562  and  _563
REMARK  235  A    between atoms: _569  and  _571
REMARK  236  A    between atoms: _571  and  _572
REMARK  237  A    between atoms: _574  and  _576
REMARK  238  A    between atoms: _576  and  _577
REMARK  239  A    between atoms: _576  and  _579
REMARK  240  A    between atoms: _579  and  _580
REMARK  241  A    between atoms: _583  and  _585
REMARK  242  A    between atoms: _585  and  _586
REMARK  243  A    between atoms: _585  and  _588
REMARK  244  A    between atoms: _588  and  _589
REMARK                            x       y       z     vdW  Elec       q    Type
REMARK                         _______ _______ _______ _____ _____    ______ ____
ROOT
ATOM      1  O   HOH     1      11.226  13.704  17.035  0.00  0.00    +0.000 OA
ENDROOT
TORSDOF 0
REMARK  Name = ../refined-set-2016/3gvu/3gvu_pocket.pdb
REMARK  244 active torsions:
REMARK  status: ('A' for Active; 'I' for Inactive)
REMARK    1  A    between atoms: _1  and  _3
REMARK    2  A    between atoms: _3  and  _4
REMARK    3  A    between atoms: _3  and  _6
REMARK    4  A    between atoms: _6  and  _7
REMARK    5  A    between atoms: _10  and  _12
REMARK    6  A    between atoms: _12  and  _13
REMARK    7  A    between atoms: _15  and  _17
REMARK    8  A    between atoms: _17  and  _18
REMARK    9  A    between atoms: _17  and  _20
REMARK   10  A    between atoms: _20  and  _21
REMARK   11  A    between atoms: _21  and  _22
REMARK   12  A    between atoms: _27  and  _29
REMARK   13  A    between atoms: _29  and  _30
REMARK   14  A    between atoms: _29  and  _32
REMARK   15  A    between atoms: _32  and  _33
REMARK   16  A    between atoms: _38  and  _39
REMARK   17  A    between atoms: _41  and  _43
REMARK   18  A    between atoms: _43  and  _44
REMARK   19  A    between atoms: _46  and  _48
REMARK   20  A    between atoms: _48  and  _49
REMARK   21  A    between atoms: _48  and  _51
REMARK   22  A    between atoms: _51  and  _52
REMARK   23  A    between atoms: _52  and  _53
REMARK   24  A    between atoms: _56  and  _58
REMARK   25  A    between atoms: _58  and  _59
REMARK   26  A    between atoms: _58  and  _61
REMARK   27  A    between atoms: _64  and  _66
REMARK   28  A    between atoms: _66  and  _67
REMARK   29  A    between atoms: _66  and  _69
REMARK   30  A    between atoms: _69  and  _70
REMARK   31  A    between atoms: _75  and  _76
REMARK   32  A    between atoms: _78  and  _80
REMARK   33  A    between atoms: _80  and  _81
REMARK   34  A    between atoms: _80  and  _83
REMARK   35  A    between atoms: _86  and  _88
REMARK   36  A    between atoms: _88  and  _89
REMARK   37  A    between atoms: _88  and  _91
REMARK   38  A    between atoms: _91  and  _92
REMARK   39  A    between atoms: _95  and  _97
REMARK   40  A    between atoms: _97  and  _98
REMARK   41  A    between atoms: _97  and  _100
REMARK   42  A    between atoms: _103  and  _105
REMARK   43  A    between atoms: _105  and  _106
REMARK   44  A    between atoms: _109  and  _111
REMARK   45  A    between atoms: _111  and  _112
REMARK   46  A    between atoms: _111  and  _114
REMARK   47  A    between atoms: _117  and  _119
REMARK   48  A    between atoms: _119  and  _120
REMARK   49  A    between atoms: _119  and  _122
REMARK   50  A    between atoms: _122  and  _123
REMARK   51  A    between atoms: _123  and  _124
REMARK   52  A    between atoms: _124  and  _125
REMARK   53  A    between atoms: _125  and  _126
REMARK   54  A    between atoms: _130  and  _132
REMARK   55  A    between atoms: _132  and  _133
REMARK   56  A    between atoms: _132  and  _135
REMARK   57  A    between atoms: _135  and  _136
REMARK   58  A    between atoms: _139  and  _141
REMARK   59  A    between atoms: _141  and  _142
REMARK   60  A    between atoms: _141  and  _144
REMARK   61  A    between atoms: _144  and  _145
REMARK   62  A    between atoms: _145  and  _146
REMARK   63  A    between atoms: _149  and  _151
REMARK   64  A    between atoms: _151  and  _152
REMARK   65  A    between atoms: _151  and  _154
REMARK   66  A    between atoms: _154  and  _155
REMARK   67  A    between atoms: _161  and  _163
REMARK   68  A    between atoms: _163  and  _164
REMARK   69  A    between atoms: _163  and  _166
REMARK   70  A    between atoms: _166  and  _167
REMARK   71  A    between atoms: _167  and  _168
REMARK   72  A    between atoms: _168  and  _169
REMARK   73  A    between atoms: _169  and  _170
REMARK   74  A    between atoms: _174  and  _176
REMARK   75  A    between atoms: _176  and  _177
REMARK   76  A    between atoms: _176  and  _179
REMARK   77  A    between atoms: _179  and  _180
REMARK   78  A    between atoms: _180  and  _181
REMARK   79  A    between atoms: _184  and  _186
REMARK   80  A    between atoms: _186  and  _187
REMARK   81  A    between atoms: _190  and  _192
REMARK   82  A    between atoms: _192  and  _193
REMARK   83  A    between atoms: _192  and  _195
REMARK   84  A    between atoms: _198  and  _200
REMARK   85  A    between atoms: _200  and  _201
REMARK   86  A    between atoms: _200  and  _203
REMARK   87  A    between atoms: _203  and  _204
REMARK   88  A    between atoms: _204  and  _205
REMARK   89  A    between atoms: _207  and  _209
REMARK   90  A    between atoms: _209  and  _210
REMARK   91  A    between atoms: _209  and  _212
REMARK   92  A    between atoms: _212  and  _213
REMARK   93  A    between atoms: _213  and  _214
REMARK   94  A    between atoms: _214  and  _215
REMARK   95  A    between atoms: _215  and  _216
REMARK   96  A    between atoms: _220  and  _222
REMARK   97  A    between atoms: _222  and  _223
REMARK   98  A    between atoms: _222  and  _225
REMARK   99  A    between atoms: _225  and  _226
REMARK  100  A    between atoms: _229  and  _231
REMARK  101  A    between atoms: _231  and  _232
REMARK  102  A    between atoms: _231  and  _234
REMARK  103  A    between atoms: _234  and  _235
REMARK  104  A    between atoms: _238  and  _240
REMARK  105  A    between atoms: _240  and  _241
REMARK  106  A    between atoms: _240  and  _243
REMARK  107  A    between atoms: _246  and  _248
REMARK  108  A    between atoms: _248  and  _249
REMARK  109  A    between atoms: _248  and  _251
REMARK  110  A    between atoms: _251  and  _252
REMARK  111  A    between atoms: _252  and  _253
REMARK  112  A    between atoms: _258  and  _260
REMARK  113  A    between atoms: _260  and  _261
REMARK  114  A    between atoms: _260  and  _263
REMARK  115  A    between atoms: _263  and  _264
REMARK  116  A    between atoms: _267  and  _269
REMARK  117  A    between atoms: _269  and  _270
REMARK  118  A    between atoms: _269  and  _272
REMARK  119  A    between atoms: _272  and  _273
REMARK  120  A    between atoms: _276  and  _278
REMARK  121  A    between atoms: _278  and  _279
REMARK  122  A    between atoms: _281  and  _283
REMARK  123  A    between atoms: _283  and  _284
REMARK  124  A    between atoms: _283  and  _286
REMARK  125  A    between atoms: _286  and  _287
REMARK  126  A    between atoms: _292  and  _293
REMARK  127  A    between atoms: _295  and  _297
REMARK  128  A    between atoms: _297  and  _298
REMARK  129  A    between atoms: _297  and  _300
REMARK  130  A    between atoms: _300  and  _301
REMARK  131  A    between atoms: _304  and  _306
REMARK  132  A    between atoms: _306  and  _307
REMARK  133  A    between atoms: _306  and  _309
REMARK  134  A    between atoms: _312  and  _314
REMARK  135  A    between atoms: _314  and  _315
REMARK  136  A    between atoms: _314  and  _317
REMARK  137  A    between atoms: _317  and  _318
REMARK  138  A    between atoms: _321  and  _323
REMARK  139  A    between atoms: _323  and  _324
REMARK  140  A    between atoms: _323  and  _326
REMARK  141  A    between atoms: _326  and  _327
REMARK  142  A    between atoms: _327  and  _328
REMARK  143  A    between atoms: _331  and  _333
REMARK  144  A    between atoms: _333  and  _334
REMARK  145  A    between atoms: _333  and  _336
REMARK  146  A    between atoms: _336  and  _337
REMARK  147  A    between atoms: _342  and  _343
REMARK  148  A    between atoms: _345  and  _347
REMARK  149  A    between atoms: _347  and  _348
REMARK  150  A    between atoms: _347  and  _350
REMARK  151  A    between atoms: _350  and  _351
REMARK  152  A    between atoms: _351  and  _352
REMARK  153  A    between atoms: _355  and  _356
REMARK  154  A    between atoms: _361  and  _363
REMARK  155  A    between atoms: _363  and  _364
REMARK  156  A    between atoms: _363  and  _366
REMARK  157  A    between atoms: _366  and  _367
REMARK  158  A    between atoms: _372  and  _373
REMARK  159  A    between atoms: _375  and  _377
REMARK  160  A    between atoms: _377  and  _378
REMARK  161  A    between atoms: _380  and  _382
REMARK  162  A    between atoms: _382  and  _383
REMARK  163  A    between atoms: _382  and  _385
REMARK  164  A    between atoms: _385  and  _386
REMARK  165  A    between atoms: _391  and  _393
REMARK  166  A    between atoms: _393  and  _394
REMARK  167  A    between atoms: _393  and  _396
REMARK  168  A    between atoms: _396  and  _397
REMARK  169  A    between atoms: _400  and  _402
REMARK  170  A    between atoms: _402  and  _403
REMARK  171  A    between atoms: _402  and  _405
REMARK  172  A    between atoms: _405  and  _406
REMARK  173  A    between atoms: _411  and  _413
REMARK  174  A    between atoms: _413  and  _414
REMARK  175  A    between atoms: _413  and  _416
REMARK  176  A    between atoms: _416  and  _417
REMARK  177  A    between atoms: _423  and  _425
REMARK  178  A    between atoms: _425  and  _426
REMARK  179  A    between atoms: _425  and  _428
REMARK  180  A    between atoms: _428  and  _429
REMARK  181  A    between atoms: _432  and  _434
REMARK  182  A    between atoms: _434  and  _435
REMARK  183  A    between atoms: _434  and  _437
REMARK  184  A    between atoms: _437  and  _438
REMARK  185  A    between atoms: _443  and  _445
REMARK  186  A    between atoms: _445  and  _446
REMARK  187  A    between atoms: _445  and  _448
REMARK  188  A    between atoms: _448  and  _449
REMARK  189  A    between atoms: _449  and  _450
REMARK  190  A    between atoms: _450  and  _451
REMARK  191  A    between atoms: _460  and  _462
REMARK  192  A    between atoms: _462  and  _463
REMARK  193  A    between atoms: _462  and  _465
REMARK  194  A    between atoms: _465  and  _466
REMARK  195  A    between atoms: _469  and  _471
REMARK  196  A    between atoms: _471  and  _472
REMARK  197  A    between atoms: _471  and  _474
REMARK  198  A    between atoms: _474  and  _475
REMARK  199  A    between atoms: _475  and  _476
REMARK  200  A    between atoms: _476  and  _477
REMARK  201  A    between atoms: _486  and  _488
REMARK  202  A    between atoms: _488  and  _489
REMARK  203  A    between atoms: _488  and  _491
REMARK  204  A    between atoms: _491  and  _492
REMARK  205  A    between atoms: _497  and  _499
REMARK  206  A    between atoms: _499  and  _500
REMARK  207  A    between atoms: _499  and  _502
REMARK  208  A    between atoms: _504  and  _506
REMARK  209  A    between atoms: _506  and  _507
REMARK  210  A    between atoms: _506  and  _509
REMARK  211  A    between atoms: _509  and  _510
REMARK  212  A    between atoms: _513  and  _515
REMARK  213  A    between atoms: _515  and  _516
REMARK  214  A    between atoms: _515  and  _518
REMARK  215  A    between atoms: _521  and  _523
REMARK  216  A    between atoms: _523  and  _524
REMARK  217  A    between atoms: _523  and  _526
REMARK  218  A    between atoms: _526  and  _527
REMARK  219  A    between atoms: _527  and  _528
REMARK  220  A    between atoms: _528  and  _529
REMARK  221  A    between atoms: _529  and  _530
REMARK  222  A    between atoms: _534  and  _536
REMARK  223  A    between atoms: _536  and  _537
REMARK  224  A    between atoms: _536  and  _539
REMARK  225  A    between atoms: _542  and  _544
REMARK  226  A    between atoms: _544  and  _545
REMARK  227  A    between atoms: _548  and  _550
REMARK  228  A    between atoms: _550  and  _551
REMARK  229  A    between atoms: _550  and  _553
REMARK  230  A    between atoms: _553  and  _554
REMARK  231  A    between atoms: _557  and  _559
REMARK  232  A    between atoms: _559  and  _560
REMARK  233  A    between atoms: _559  and  _562
REMARK  234  A    between atoms: _562  and  _563
REMARK  235  A    between atoms: _569  and  _571
REMARK  236  A    between atoms: _571  and  _572
REMARK  237  A    between atoms: _574  and  _576
REMARK  238  A    between atoms: _576  and  _577
REMARK  239  A    between atoms: _576  and  _579
REMARK  240  A    between atoms: _579  and  _580
REMARK  241  A    between atoms: _583  and  _585
REMARK  242  A    between atoms: _585  and  _586
REMARK  243  A    between atoms: _585  and  _588
REMARK  244  A    between atoms: _588  and  _589
REMARK                            x       y       z     vdW  Elec       q    Type
REMARK                         _______ _______ _______ _____ _____    ______ ____
ROOT
ATOM      1  O   HOH     1       9.451  -1.525  20.387  0.00  0.00    +0.000 OA
ENDROOT
TORSDOF 0
REMARK  Name = ../refined-set-2016/3gvu/3gvu_pocket.pdb
REMARK  244 active torsions:
REMARK  status: ('A' for Active; 'I' for Inactive)
REMARK    1  A    between atoms: _1  and  _3
REMARK    2  A    between atoms: _3  and  _4
REMARK    3  A    between atoms: _3  and  _6
REMARK    4  A    between atoms: _6  and  _7
REMARK    5  A    between atoms: _10  and  _12
REMARK    6  A    between atoms: _12  and  _13
REMARK    7  A    between atoms: _15  and  _17
REMARK    8  A    between atoms: _17  and  _18
REMARK    9  A    between atoms: _17  and  _20
REMARK   10  A    between atoms: _20  and  _21
REMARK   11  A    between atoms: _21  and  _22
REMARK   12  A    between atoms: _27  and  _29
REMARK   13  A    between atoms: _29  and  _30
REMARK   14  A    between atoms: _29  and  _32
REMARK   15  A    between atoms: _32  and  _33
REMARK   16  A    between atoms: _38  and  _39
REMARK   17  A    between atoms: _41  and  _43
REMARK   18  A    between atoms: _43  and  _44
REMARK   19  A    between atoms: _46  and  _48
REMARK   20  A    between atoms: _48  and  _49
REMARK   21  A    between atoms: _48  and  _51
REMARK   22  A    between atoms: _51  and  _52
REMARK   23  A    between atoms: _52  and  _53
REMARK   24  A    between atoms: _56  and  _58
REMARK   25  A    between atoms: _58  and  _59
REMARK   26  A    between atoms: _58  and  _61
REMARK   27  A    between atoms: _64  and  _66
REMARK   28  A    between atoms: _66  and  _67
REMARK   29  A    between atoms: _66  and  _69
REMARK   30  A    between atoms: _69  and  _70
REMARK   31  A    between atoms: _75  and  _76
REMARK   32  A    between atoms: _78  and  _80
REMARK   33  A    between atoms: _80  and  _81
REMARK   34  A    between atoms: _80  and  _83
REMARK   35  A    between atoms: _86  and  _88
REMARK   36  A    between atoms: _88  and  _89
REMARK   37  A    between atoms: _88  and  _91
REMARK   38  A    between atoms: _91  and  _92
REMARK   39  A    between atoms: _95  and  _97
REMARK   40  A    between atoms: _97  and  _98
REMARK   41  A    between atoms: _97  and  _100
REMARK   42  A    between atoms: _103  and  _105
REMARK   43  A    between atoms: _105  and  _106
REMARK   44  A    between atoms: _109  and  _111
REMARK   45  A    between atoms: _111  and  _112
REMARK   46  A    between atoms: _111  and  _114
REMARK   47  A    between atoms: _117  and  _119
REMARK   48  A    between atoms: _119  and  _120
REMARK   49  A    between atoms: _119  and  _122
REMARK   50  A    between atoms: _122  and  _123
REMARK   51  A    between atoms: _123  and  _124
REMARK   52  A    between atoms: _124  and  _125
REMARK   53  A    between atoms: _125  and  _126
REMARK   54  A    between atoms: _130  and  _132
REMARK   55  A    between atoms: _132  and  _133
REMARK   56  A    between atoms: _132  and  _135
REMARK   57  A    between atoms: _135  and  _136
REMARK   58  A    between atoms: _139  and  _141
REMARK   59  A    between atoms: _141  and  _142
REMARK   60  A    between atoms: _141  and  _144
REMARK   61  A    between atoms: _144  and  _145
REMARK   62  A    between atoms: _145  and  _146
REMARK   63  A    between atoms: _149  and  _151
REMARK   64  A    between atoms: _151  and  _152
REMARK   65  A    between atoms: _151  and  _154
REMARK   66  A    between atoms: _154  and  _155
REMARK   67  A    between atoms: _161  and  _163
REMARK   68  A    between atoms: _163  and  _164
REMARK   69  A    between atoms: _163  and  _166
REMARK   70  A    between atoms: _166  and  _167
REMARK   71  A    between atoms: _167  and  _168
REMARK   72  A    between atoms: _168  and  _169
REMARK   73  A    between atoms: _169  and  _170
REMARK   74  A    between atoms: _174  and  _176
REMARK   75  A    between atoms: _176  and  _177
REMARK   76  A    between atoms: _176  and  _179
REMARK   77  A    between atoms: _179  and  _180
REMARK   78  A    between atoms: _180  and  _181
REMARK   79  A    between atoms: _184  and  _186
REMARK   80  A    between atoms: _186  and  _187
REMARK   81  A    between atoms: _190  and  _192
REMARK   82  A    between atoms: _192  and  _193
REMARK   83  A    between atoms: _192  and  _195
REMARK   84  A    between atoms: _198  and  _200
REMARK   85  A    between atoms: _200  and  _201
REMARK   86  A    between atoms: _200  and  _203
REMARK   87  A    between atoms: _203  and  _204
REMARK   88  A    between atoms: _204  and  _205
REMARK   89  A    between atoms: _207  and  _209
REMARK   90  A    between atoms: _209  and  _210
REMARK   91  A    between atoms: _209  and  _212
REMARK   92  A    between atoms: _212  and  _213
REMARK   93  A    between atoms: _213  and  _214
REMARK   94  A    between atoms: _214  and  _215
REMARK   95  A    between atoms: _215  and  _216
REMARK   96  A    between atoms: _220  and  _222
REMARK   97  A    between atoms: _222  and  _223
REMARK   98  A    between atoms: _222  and  _225
REMARK   99  A    between atoms: _225  and  _226
REMARK  100  A    between atoms: _229  and  _231
REMARK  101  A    between atoms: _231  and  _232
REMARK  102  A    between atoms: _231  and  _234
REMARK  103  A    between atoms: _234  and  _235
REMARK  104  A    between atoms: _238  and  _240
REMARK  105  A    between atoms: _240  and  _241
REMARK  106  A    between atoms: _240  and  _243
REMARK  107  A    between atoms: _246  and  _248
REMARK  108  A    between atoms: _248  and  _249
REMARK  109  A    between atoms: _248  and  _251
REMARK  110  A    between atoms: _251  and  _252
REMARK  111  A    between atoms: _252  and  _253
REMARK  112  A    between atoms: _258  and  _260
REMARK  113  A    between atoms: _260  and  _261
REMARK  114  A    between atoms: _260  and  _263
REMARK  115  A    between atoms: _263  and  _264
REMARK  116  A    between atoms: _267  and  _269
REMARK  117  A    between atoms: _269  and  _270
REMARK  118  A    between atoms: _269  and  _272
REMARK  119  A    between atoms: _272  and  _273
REMARK  120  A    between atoms: _276  and  _278
REMARK  121  A    between atoms: _278  and  _279
REMARK  122  A    between atoms: _281  and  _283
REMARK  123  A    between atoms: _283  and  _284
REMARK  124  A    between atoms: _283  and  _286
REMARK  125  A    between atoms: _286  and  _287
REMARK  126  A    between atoms: _292  and  _293
REMARK  127  A    between atoms: _295  and  _297
REMARK  128  A    between atoms: _297  and  _298
REMARK  129  A    between atoms: _297  and  _300
REMARK  130  A    between atoms: _300  and  _301
REMARK  131  A    between atoms: _304  and  _306
REMARK  132  A    between atoms: _306  and  _307
REMARK  133  A    between atoms: _306  and  _309
REMARK  134  A    between atoms: _312  and  _314
REMARK  135  A    between atoms: _314  and  _315
REMARK  136  A    between atoms: _314  and  _317
REMARK  137  A    between atoms: _317  and  _318
REMARK  138  A    between atoms: _321  and  _323
REMARK  139  A    between atoms: _323  and  _324
REMARK  140  A    between atoms: _323  and  _326
REMARK  141  A    between atoms: _326  and  _327
REMARK  142  A    between atoms: _327  and  _328
REMARK  143  A    between atoms: _331  and  _333
REMARK  144  A    between atoms: _333  and  _334
REMARK  145  A    between atoms: _333  and  _336
REMARK  146  A    between atoms: _336  and  _337
REMARK  147  A    between atoms: _342  and  _343
REMARK  148  A    between atoms: _345  and  _347
REMARK  149  A    between atoms: _347  and  _348
REMARK  150  A    between atoms: _347  and  _350
REMARK  151  A    between atoms: _350  and  _351
REMARK  152  A    between atoms: _351  and  _352
REMARK  153  A    between atoms: _355  and  _356
REMARK  154  A    between atoms: _361  and  _363
REMARK  155  A    between atoms: _363  and  _364
REMARK  156  A    between atoms: _363  and  _366
REMARK  157  A    between atoms: _366  and  _367
REMARK  158  A    between atoms: _372  and  _373
REMARK  159  A    between atoms: _375  and  _377
REMARK  160  A    between atoms: _377  and  _378
REMARK  161  A    between atoms: _380  and  _382
REMARK  162  A    between atoms: _382  and  _383
REMARK  163  A    between atoms: _382  and  _385
REMARK  164  A    between atoms: _385  and  _386
REMARK  165  A    between atoms: _391  and  _393
REMARK  166  A    between atoms: _393  and  _394
REMARK  167  A    between atoms: _393  and  _396
REMARK  168  A    between atoms: _396  and  _397
REMARK  169  A    between atoms: _400  and  _402
REMARK  170  A    between atoms: _402  and  _403
REMARK  171  A    between atoms: _402  and  _405
REMARK  172  A    between atoms: _405  and  _406
REMARK  173  A    between atoms: _411  and  _413
REMARK  174  A    between atoms: _413  and  _414
REMARK  175  A    between atoms: _413  and  _416
REMARK  176  A    between atoms: _416  and  _417
REMARK  177  A    between atoms: _423  and  _425
REMARK  178  A    between atoms: _425  and  _426
REMARK  179  A    between atoms: _425  and  _428
REMARK  180  A    between atoms: _428  and  _429
REMARK  181  A    between atoms: _432  and  _434
REMARK  182  A    between atoms: _434  and  _435
REMARK  183  A    between atoms: _434  and  _437
REMARK  184  A    between atoms: _437  and  _438
REMARK  185  A    between atoms: _443  and  _445
REMARK  186  A    between atoms: _445  and  _446
REMARK  187  A    between atoms: _445  and  _448
REMARK  188  A    between atoms: _448  and  _449
REMARK  189  A    between atoms: _449  and  _450
REMARK  190  A    between atoms: _450  and  _451
REMARK  191  A    between atoms: _460  and  _462
REMARK  192  A    between atoms: _462  and  _463
REMARK  193  A    between atoms: _462  and  _465
REMARK  194  A    between atoms: _465  and  _466
REMARK  195  A    between atoms: _469  and  _471
REMARK  196  A    between atoms: _471  and  _472
REMARK  197  A    between atoms: _471  and  _474
REMARK  198  A    between atoms: _474  and  _475
REMARK  199  A    between atoms: _475  and  _476
REMARK  200  A    between atoms: _476  and  _477
REMARK  201  A    between atoms: _486  and  _488
REMARK  202  A    between atoms: _488  and  _489
REMARK  203  A    between atoms: _488  and  _491
REMARK  204  A    between atoms: _491  and  _492
REMARK  205  A    between atoms: _497  and  _499
REMARK  206  A    between atoms: _499  and  _500
REMARK  207  A    between atoms: _499  and  _502
REMARK  208  A    between atoms: _504  and  _506
REMARK  209  A    between atoms: _506  and  _507
REMARK  210  A    between atoms: _506  and  _509
REMARK  211  A    between atoms: _509  and  _510
REMARK  212  A    between atoms: _513  and  _515
REMARK  213  A    between atoms: _515  and  _516
REMARK  214  A    between atoms: _515  and  _518
REMARK  215  A    between atoms: _521  and  _523
REMARK  216  A    between atoms: _523  and  _524
REMARK  217  A    between atoms: _523  and  _526
REMARK  218  A    between atoms: _526  and  _527
REMARK  219  A    between atoms: _527  and  _528
REMARK  220  A    between atoms: _528  and  _529
REMARK  221  A    between atoms: _529  and  _530
REMARK  222  A    between atoms: _534  and  _536
REMARK  223  A    between atoms: _536  and  _537
REMARK  224  A    between atoms: _536  and  _539
REMARK  225  A    between atoms: _542  and  _544
REMARK  226  A    between atoms: _544  and  _545
REMARK  227  A    between atoms: _548  and  _550
REMARK  228  A    between atoms: _550  and  _551
REMARK  229  A    between atoms: _550  and  _553
REMARK  230  A    between atoms: _553  and  _554
REMARK  231  A    between atoms: _557  and  _559
REMARK  232  A    between atoms: _559  and  _560
REMARK  233  A    between atoms: _559  and  _562
REMARK  234  A    between atoms: _562  and  _563
REMARK  235  A    between atoms: _569  and  _571
REMARK  236  A    between atoms: _571  and  _572
REMARK  237  A    between atoms: _574  and  _576
REMARK  238  A    between atoms: _576  and  _577
REMARK  239  A    between atoms: _576  and  _579
REMARK  240  A    between atoms: _579  and  _580
REMARK  241  A    between atoms: _583  and  _585
REMARK  242  A    between atoms: _585  and  _586
REMARK  243  A    between atoms: _585  and  _588
REMARK  244  A    between atoms: _588  and  _589
REMARK                            x       y       z     vdW  Elec       q    Type
REMARK                         _______ _______ _______ _____ _____    ______ ____
ROOT
ATOM      1  O   HOH     1      10.303  15.652  14.169  0.00  0.00    +0.000 OA
ENDROOT
TORSDOF 0
REMARK  Name = ../refined-set-2016/3gvu/3gvu_pocket.pdb
REMARK  244 active torsions:
REMARK  status: ('A' for Active; 'I' for Inactive)
REMARK    1  A    between atoms: _1  and  _3
REMARK    2  A    between atoms: _3  and  _4
REMARK    3  A    between atoms: _3  and  _6
REMARK    4  A    between atoms: _6  and  _7
REMARK    5  A    between atoms: _10  and  _12
REMARK    6  A    between atoms: _12  and  _13
REMARK    7  A    between atoms: _15  and  _17
REMARK    8  A    between atoms: _17  and  _18
REMARK    9  A    between atoms: _17  and  _20
REMARK   10  A    between atoms: _20  and  _21
REMARK   11  A    between atoms: _21  and  _22
REMARK   12  A    between atoms: _27  and  _29
REMARK   13  A    between atoms: _29  and  _30
REMARK   14  A    between atoms: _29  and  _32
REMARK   15  A    between atoms: _32  and  _33
REMARK   16  A    between atoms: _38  and  _39
REMARK   17  A    between atoms: _41  and  _43
REMARK   18  A    between atoms: _43  and  _44
REMARK   19  A    between atoms: _46  and  _48
REMARK   20  A    between atoms: _48  and  _49
REMARK   21  A    between atoms: _48  and  _51
REMARK   22  A    between atoms: _51  and  _52
REMARK   23  A    between atoms: _52  and  _53
REMARK   24  A    between atoms: _56  and  _58
REMARK   25  A    between atoms: _58  and  _59
REMARK   26  A    between atoms: _58  and  _61
REMARK   27  A    between atoms: _64  and  _66
REMARK   28  A    between atoms: _66  and  _67
REMARK   29  A    between atoms: _66  and  _69
REMARK   30  A    between atoms: _69  and  _70
REMARK   31  A    between atoms: _75  and  _76
REMARK   32  A    between atoms: _78  and  _80
REMARK   33  A    between atoms: _80  and  _81
REMARK   34  A    between atoms: _80  and  _83
REMARK   35  A    between atoms: _86  and  _88
REMARK   36  A    between atoms: _88  and  _89
REMARK   37  A    between atoms: _88  and  _91
REMARK   38  A    between atoms: _91  and  _92
REMARK   39  A    between atoms: _95  and  _97
REMARK   40  A    between atoms: _97  and  _98
REMARK   41  A    between atoms: _97  and  _100
REMARK   42  A    between atoms: _103  and  _105
REMARK   43  A    between atoms: _105  and  _106
REMARK   44  A    between atoms: _109  and  _111
REMARK   45  A    between atoms: _111  and  _112
REMARK   46  A    between atoms: _111  and  _114
REMARK   47  A    between atoms: _117  and  _119
REMARK   48  A    between atoms: _119  and  _120
REMARK   49  A    between atoms: _119  and  _122
REMARK   50  A    between atoms: _122  and  _123
REMARK   51  A    between atoms: _123  and  _124
REMARK   52  A    between atoms: _124  and  _125
REMARK   53  A    between atoms: _125  and  _126
REMARK   54  A    between atoms: _130  and  _132
REMARK   55  A    between atoms: _132  and  _133
REMARK   56  A    between atoms: _132  and  _135
REMARK   57  A    between atoms: _135  and  _136
REMARK   58  A    between atoms: _139  and  _141
REMARK   59  A    between atoms: _141  and  _142
REMARK   60  A    between atoms: _141  and  _144
REMARK   61  A    between atoms: _144  and  _145
REMARK   62  A    between atoms: _145  and  _146
REMARK   63  A    between atoms: _149  and  _151
REMARK   64  A    between atoms: _151  and  _152
REMARK   65  A    between atoms: _151  and  _154
REMARK   66  A    between atoms: _154  and  _155
REMARK   67  A    between atoms: _161  and  _163
REMARK   68  A    between atoms: _163  and  _164
REMARK   69  A    between atoms: _163  and  _166
REMARK   70  A    between atoms: _166  and  _167
REMARK   71  A    between atoms: _167  and  _168
REMARK   72  A    between atoms: _168  and  _169
REMARK   73  A    between atoms: _169  and  _170
REMARK   74  A    between atoms: _174  and  _176
REMARK   75  A    between atoms: _176  and  _177
REMARK   76  A    between atoms: _176  and  _179
REMARK   77  A    between atoms: _179  and  _180
REMARK   78  A    between atoms: _180  and  _181
REMARK   79  A    between atoms: _184  and  _186
REMARK   80  A    between atoms: _186  and  _187
REMARK   81  A    between atoms: _190  and  _192
REMARK   82  A    between atoms: _192  and  _193
REMARK   83  A    between atoms: _192  and  _195
REMARK   84  A    between atoms: _198  and  _200
REMARK   85  A    between atoms: _200  and  _201
REMARK   86  A    between atoms: _200  and  _203
REMARK   87  A    between atoms: _203  and  _204
REMARK   88  A    between atoms: _204  and  _205
REMARK   89  A    between atoms: _207  and  _209
REMARK   90  A    between atoms: _209  and  _210
REMARK   91  A    between atoms: _209  and  _212
REMARK   92  A    between atoms: _212  and  _213
REMARK   93  A    between atoms: _213  and  _214
REMARK   94  A    between atoms: _214  and  _215
REMARK   95  A    between atoms: _215  and  _216
REMARK   96  A    between atoms: _220  and  _222
REMARK   97  A    between atoms: _222  and  _223
REMARK   98  A    between atoms: _222  and  _225
REMARK   99  A    between atoms: _225  and  _226
REMARK  100  A    between atoms: _229  and  _231
REMARK  101  A    between atoms: _231  and  _232
REMARK  102  A    between atoms: _231  and  _234
REMARK  103  A    between atoms: _234  and  _235
REMARK  104  A    between atoms: _238  and  _240
REMARK  105  A    between atoms: _240  and  _241
REMARK  106  A    between atoms: _240  and  _243
REMARK  107  A    between atoms: _246  and  _248
REMARK  108  A    between atoms: _248  and  _249
REMARK  109  A    between atoms: _248  and  _251
REMARK  110  A    between atoms: _251  and  _252
REMARK  111  A    between atoms: _252  and  _253
REMARK  112  A    between atoms: _258  and  _260
REMARK  113  A    between atoms: _260  and  _261
REMARK  114  A    between atoms: _260  and  _263
REMARK  115  A    between atoms: _263  and  _264
REMARK  116  A    between atoms: _267  and  _269
REMARK  117  A    between atoms: _269  and  _270
REMARK  118  A    between atoms: _269  and  _272
REMARK  119  A    between atoms: _272  and  _273
REMARK  120  A    between atoms: _276  and  _278
REMARK  121  A    between atoms: _278  and  _279
REMARK  122  A    between atoms: _281  and  _283
REMARK  123  A    between atoms: _283  and  _284
REMARK  124  A    between atoms: _283  and  _286
REMARK  125  A    between atoms: _286  and  _287
REMARK  126  A    between atoms: _292  and  _293
REMARK  127  A    between atoms: _295  and  _297
REMARK  128  A    between atoms: _297  and  _298
REMARK  129  A    between atoms: _297  and  _300
REMARK  130  A    between atoms: _300  and  _301
REMARK  131  A    between atoms: _304  and  _306
REMARK  132  A    between atoms: _306  and  _307
REMARK  133  A    between atoms: _306  and  _309
REMARK  134  A    between atoms: _312  and  _314
REMARK  135  A    between atoms: _314  and  _315
REMARK  136  A    between atoms: _314  and  _317
REMARK  137  A    between atoms: _317  and  _318
REMARK  138  A    between atoms: _321  and  _323
REMARK  139  A    between atoms: _323  and  _324
REMARK  140  A    between atoms: _323  and  _326
REMARK  141  A    between atoms: _326  and  _327
REMARK  142  A    between atoms: _327  and  _328
REMARK  143  A    between atoms: _331  and  _333
REMARK  144  A    between atoms: _333  and  _334
REMARK  145  A    between atoms: _333  and  _336
REMARK  146  A    between atoms: _336  and  _337
REMARK  147  A    between atoms: _342  and  _343
REMARK  148  A    between atoms: _345  and  _347
REMARK  149  A    between atoms: _347  and  _348
REMARK  150  A    between atoms: _347  and  _350
REMARK  151  A    between atoms: _350  and  _351
REMARK  152  A    between atoms: _351  and  _352
REMARK  153  A    between atoms: _355  and  _356
REMARK  154  A    between atoms: _361  and  _363
REMARK  155  A    between atoms: _363  and  _364
REMARK  156  A    between atoms: _363  and  _366
REMARK  157  A    between atoms: _366  and  _367
REMARK  158  A    between atoms: _372  and  _373
REMARK  159  A    between atoms: _375  and  _377
REMARK  160  A    between atoms: _377  and  _378
REMARK  161  A    between atoms: _380  and  _382
REMARK  162  A    between atoms: _382  and  _383
REMARK  163  A    between atoms: _382  and  _385
REMARK  164  A    between atoms: _385  and  _386
REMARK  165  A    between atoms: _391  and  _393
REMARK  166  A    between atoms: _393  and  _394
REMARK  167  A    between atoms: _393  and  _396
REMARK  168  A    between atoms: _396  and  _397
REMARK  169  A    between atoms: _400  and  _402
REMARK  170  A    between atoms: _402  and  _403
REMARK  171  A    between atoms: _402  and  _405
REMARK  172  A    between atoms: _405  and  _406
REMARK  173  A    between atoms: _411  and  _413
REMARK  174  A    between atoms: _413  and  _414
REMARK  175  A    between atoms: _413  and  _416
REMARK  176  A    between atoms: _416  and  _417
REMARK  177  A    between atoms: _423  and  _425
REMARK  178  A    between atoms: _425  and  _426
REMARK  179  A    between atoms: _425  and  _428
REMARK  180  A    between atoms: _428  and  _429
REMARK  181  A    between atoms: _432  and  _434
REMARK  182  A    between atoms: _434  and  _435
REMARK  183  A    between atoms: _434  and  _437
REMARK  184  A    between atoms: _437  and  _438
REMARK  185  A    between atoms: _443  and  _445
REMARK  186  A    between atoms: _445  and  _446
REMARK  187  A    between atoms: _445  and  _448
REMARK  188  A    between atoms: _448  and  _449
REMARK  189  A    between atoms: _449  and  _450
REMARK  190  A    between atoms: _450  and  _451
REMARK  191  A    between atoms: _460  and  _462
REMARK  192  A    between atoms: _462  and  _463
REMARK  193  A    between atoms: _462  and  _465
REMARK  194  A    between atoms: _465  and  _466
REMARK  195  A    between atoms: _469  and  _471
REMARK  196  A    between atoms: _471  and  _472
REMARK  197  A    between atoms: _471  and  _474
REMARK  198  A    between atoms: _474  and  _475
REMARK  199  A    between atoms: _475  and  _476
REMARK  200  A    between atoms: _476  and  _477
REMARK  201  A    between atoms: _486  and  _488
REMARK  202  A    between atoms: _488  and  _489
REMARK  203  A    between atoms: _488  and  _491
REMARK  204  A    between atoms: _491  and  _492
REMARK  205  A    between atoms: _497  and  _499
REMARK  206  A    between atoms: _499  and  _500
REMARK  207  A    between atoms: _499  and  _502
REMARK  208  A    between atoms: _504  and  _506
REMARK  209  A    between atoms: _506  and  _507
REMARK  210  A    between atoms: _506  and  _509
REMARK  211  A    between atoms: _509  and  _510
REMARK  212  A    between atoms: _513  and  _515
REMARK  213  A    between atoms: _515  and  _516
REMARK  214  A    between atoms: _515  and  _518
REMARK  215  A    between atoms: _521  and  _523
REMARK  216  A    between atoms: _523  and  _524
REMARK  217  A    between atoms: _523  and  _526
REMARK  218  A    between atoms: _526  and  _527
REMARK  219  A    between atoms: _527  and  _528
REMARK  220  A    between atoms: _528  and  _529
REMARK  221  A    between atoms: _529  and  _530
REMARK  222  A    between atoms: _534  and  _536
REMARK  223  A    between atoms: _536  and  _537
REMARK  224  A    between atoms: _536  and  _539
REMARK  225  A    between atoms: _542  and  _544
REMARK  226  A    between atoms: _544  and  _545
REMARK  227  A    between atoms: _548  and  _550
REMARK  228  A    between atoms: _550  and  _551
REMARK  229  A    between atoms: _550  and  _553
REMARK  230  A    between atoms: _553  and  _554
REMARK  231  A    between atoms: _557  and  _559
REMARK  232  A    between atoms: _559  and  _560
REMARK  233  A    between atoms: _559  and  _562
REMARK  234  A    between atoms: _562  and  _563
REMARK  235  A    between atoms: _569  and  _571
REMARK  236  A    between atoms: _571  and  _572
REMARK  237  A    between atoms: _574  and  _576
REMARK  238  A    between atoms: _576  and  _577
REMARK  239  A    between atoms: _576  and  _579
REMARK  240  A    between atoms: _579  and  _580
REMARK  241  A    between atoms: _583  and  _585
REMARK  242  A    between atoms: _585  and  _586
REMARK  243  A    between atoms: _585  and  _588
REMARK  244  A    between atoms: _588  and  _589
REMARK                            x       y       z     vdW  Elec       q    Type
REMARK                         _______ _______ _______ _____ _____    ______ ____
ROOT
ATOM      1  O   HOH     1      24.742  19.845  17.628  0.00  0.00    +0.000 OA
ENDROOT
TORSDOF 0
REMARK  Name = ../refined-set-2016/3gvu/3gvu_pocket.pdb
REMARK  244 active torsions:
REMARK  status: ('A' for Active; 'I' for Inactive)
REMARK    1  A    between atoms: _1  and  _3
REMARK    2  A    between atoms: _3  and  _4
REMARK    3  A    between atoms: _3  and  _6
REMARK    4  A    between atoms: _6  and  _7
REMARK    5  A    between atoms: _10  and  _12
REMARK    6  A    between atoms: _12  and  _13
REMARK    7  A    between atoms: _15  and  _17
REMARK    8  A    between atoms: _17  and  _18
REMARK    9  A    between atoms: _17  and  _20
REMARK   10  A    between atoms: _20  and  _21
REMARK   11  A    between atoms: _21  and  _22
REMARK   12  A    between atoms: _27  and  _29
REMARK   13  A    between atoms: _29  and  _30
REMARK   14  A    between atoms: _29  and  _32
REMARK   15  A    between atoms: _32  and  _33
REMARK   16  A    between atoms: _38  and  _39
REMARK   17  A    between atoms: _41  and  _43
REMARK   18  A    between atoms: _43  and  _44
REMARK   19  A    between atoms: _46  and  _48
REMARK   20  A    between atoms: _48  and  _49
REMARK   21  A    between atoms: _48  and  _51
REMARK   22  A    between atoms: _51  and  _52
REMARK   23  A    between atoms: _52  and  _53
REMARK   24  A    between atoms: _56  and  _58
REMARK   25  A    between atoms: _58  and  _59
REMARK   26  A    between atoms: _58  and  _61
REMARK   27  A    between atoms: _64  and  _66
REMARK   28  A    between atoms: _66  and  _67
REMARK   29  A    between atoms: _66  and  _69
REMARK   30  A    between atoms: _69  and  _70
REMARK   31  A    between atoms: _75  and  _76
REMARK   32  A    between atoms: _78  and  _80
REMARK   33  A    between atoms: _80  and  _81
REMARK   34  A    between atoms: _80  and  _83
REMARK   35  A    between atoms: _86  and  _88
REMARK   36  A    between atoms: _88  and  _89
REMARK   37  A    between atoms: _88  and  _91
REMARK   38  A    between atoms: _91  and  _92
REMARK   39  A    between atoms: _95  and  _97
REMARK   40  A    between atoms: _97  and  _98
REMARK   41  A    between atoms: _97  and  _100
REMARK   42  A    between atoms: _103  and  _105
REMARK   43  A    between atoms: _105  and  _106
REMARK   44  A    between atoms: _109  and  _111
REMARK   45  A    between atoms: _111  and  _112
REMARK   46  A    between atoms: _111  and  _114
REMARK   47  A    between atoms: _117  and  _119
REMARK   48  A    between atoms: _119  and  _120
REMARK   49  A    between atoms: _119  and  _122
REMARK   50  A    between atoms: _122  and  _123
REMARK   51  A    between atoms: _123  and  _124
REMARK   52  A    between atoms: _124  and  _125
REMARK   53  A    between atoms: _125  and  _126
REMARK   54  A    between atoms: _130  and  _132
REMARK   55  A    between atoms: _132  and  _133
REMARK   56  A    between atoms: _132  and  _135
REMARK   57  A    between atoms: _135  and  _136
REMARK   58  A    between atoms: _139  and  _141
REMARK   59  A    between atoms: _141  and  _142
REMARK   60  A    between atoms: _141  and  _144
REMARK   61  A    between atoms: _144  and  _145
REMARK   62  A    between atoms: _145  and  _146
REMARK   63  A    between atoms: _149  and  _151
REMARK   64  A    between atoms: _151  and  _152
REMARK   65  A    between atoms: _151  and  _154
REMARK   66  A    between atoms: _154  and  _155
REMARK   67  A    between atoms: _161  and  _163
REMARK   68  A    between atoms: _163  and  _164
REMARK   69  A    between atoms: _163  and  _166
REMARK   70  A    between atoms: _166  and  _167
REMARK   71  A    between atoms: _167  and  _168
REMARK   72  A    between atoms: _168  and  _169
REMARK   73  A    between atoms: _169  and  _170
REMARK   74  A    between atoms: _174  and  _176
REMARK   75  A    between atoms: _176  and  _177
REMARK   76  A    between atoms: _176  and  _179
REMARK   77  A    between atoms: _179  and  _180
REMARK   78  A    between atoms: _180  and  _181
REMARK   79  A    between atoms: _184  and  _186
REMARK   80  A    between atoms: _186  and  _187
REMARK   81  A    between atoms: _190  and  _192
REMARK   82  A    between atoms: _192  and  _193
REMARK   83  A    between atoms: _192  and  _195
REMARK   84  A    between atoms: _198  and  _200
REMARK   85  A    between atoms: _200  and  _201
REMARK   86  A    between atoms: _200  and  _203
REMARK   87  A    between atoms: _203  and  _204
REMARK   88  A    between atoms: _204  and  _205
REMARK   89  A    between atoms: _207  and  _209
REMARK   90  A    between atoms: _209  and  _210
REMARK   91  A    between atoms: _209  and  _212
REMARK   92  A    between atoms: _212  and  _213
REMARK   93  A    between atoms: _213  and  _214
REMARK   94  A    between atoms: _214  and  _215
REMARK   95  A    between atoms: _215  and  _216
REMARK   96  A    between atoms: _220  and  _222
REMARK   97  A    between atoms: _222  and  _223
REMARK   98  A    between atoms: _222  and  _225
REMARK   99  A    between atoms: _225  and  _226
REMARK  100  A    between atoms: _229  and  _231
REMARK  101  A    between atoms: _231  and  _232
REMARK  102  A    between atoms: _231  and  _234
REMARK  103  A    between atoms: _234  and  _235
REMARK  104  A    between atoms: _238  and  _240
REMARK  105  A    between atoms: _240  and  _241
REMARK  106  A    between atoms: _240  and  _243
REMARK  107  A    between atoms: _246  and  _248
REMARK  108  A    between atoms: _248  and  _249
REMARK  109  A    between atoms: _248  and  _251
REMARK  110  A    between atoms: _251  and  _252
REMARK  111  A    between atoms: _252  and  _253
REMARK  112  A    between atoms: _258  and  _260
REMARK  113  A    between atoms: _260  and  _261
REMARK  114  A    between atoms: _260  and  _263
REMARK  115  A    between atoms: _263  and  _264
REMARK  116  A    between atoms: _267  and  _269
REMARK  117  A    between atoms: _269  and  _270
REMARK  118  A    between atoms: _269  and  _272
REMARK  119  A    between atoms: _272  and  _273
REMARK  120  A    between atoms: _276  and  _278
REMARK  121  A    between atoms: _278  and  _279
REMARK  122  A    between atoms: _281  and  _283
REMARK  123  A    between atoms: _283  and  _284
REMARK  124  A    between atoms: _283  and  _286
REMARK  125  A    between atoms: _286  and  _287
REMARK  126  A    between atoms: _292  and  _293
REMARK  127  A    between atoms: _295  and  _297
REMARK  128  A    between atoms: _297  and  _298
REMARK  129  A    between atoms: _297  and  _300
REMARK  130  A    between atoms: _300  and  _301
REMARK  131  A    between atoms: _304  and  _306
REMARK  132  A    between atoms: _306  and  _307
REMARK  133  A    between atoms: _306  and  _309
REMARK  134  A    between atoms: _312  and  _314
REMARK  135  A    between atoms: _314  and  _315
REMARK  136  A    between atoms: _314  and  _317
REMARK  137  A    between atoms: _317  and  _318
REMARK  138  A    between atoms: _321  and  _323
REMARK  139  A    between atoms: _323  and  _324
REMARK  140  A    between atoms: _323  and  _326
REMARK  141  A    between atoms: _326  and  _327
REMARK  142  A    between atoms: _327  and  _328
REMARK  143  A    between atoms: _331  and  _333
REMARK  144  A    between atoms: _333  and  _334
REMARK  145  A    between atoms: _333  and  _336
REMARK  146  A    between atoms: _336  and  _337
REMARK  147  A    between atoms: _342  and  _343
REMARK  148  A    between atoms: _345  and  _347
REMARK  149  A    between atoms: _347  and  _348
REMARK  150  A    between atoms: _347  and  _350
REMARK  151  A    between atoms: _350  and  _351
REMARK  152  A    between atoms: _351  and  _352
REMARK  153  A    between atoms: _355  and  _356
REMARK  154  A    between atoms: _361  and  _363
REMARK  155  A    between atoms: _363  and  _364
REMARK  156  A    between atoms: _363  and  _366
REMARK  157  A    between atoms: _366  and  _367
REMARK  158  A    between atoms: _372  and  _373
REMARK  159  A    between atoms: _375  and  _377
REMARK  160  A    between atoms: _377  and  _378
REMARK  161  A    between atoms: _380  and  _382
REMARK  162  A    between atoms: _382  and  _383
REMARK  163  A    between atoms: _382  and  _385
REMARK  164  A    between atoms: _385  and  _386
REMARK  165  A    between atoms: _391  and  _393
REMARK  166  A    between atoms: _393  and  _394
REMARK  167  A    between atoms: _393  and  _396
REMARK  168  A    between atoms: _396  and  _397
REMARK  169  A    between atoms: _400  and  _402
REMARK  170  A    between atoms: _402  and  _403
REMARK  171  A    between atoms: _402  and  _405
REMARK  172  A    between atoms: _405  and  _406
REMARK  173  A    between atoms: _411  and  _413
REMARK  174  A    between atoms: _413  and  _414
REMARK  175  A    between atoms: _413  and  _416
REMARK  176  A    between atoms: _416  and  _417
REMARK  177  A    between atoms: _423  and  _425
REMARK  178  A    between atoms: _425  and  _426
REMARK  179  A    between atoms: _425  and  _428
REMARK  180  A    between atoms: _428  and  _429
REMARK  181  A    between atoms: _432  and  _434
REMARK  182  A    between atoms: _434  and  _435
REMARK  183  A    between atoms: _434  and  _437
REMARK  184  A    between atoms: _437  and  _438
REMARK  185  A    between atoms: _443  and  _445
REMARK  186  A    between atoms: _445  and  _446
REMARK  187  A    between atoms: _445  and  _448
REMARK  188  A    between atoms: _448  and  _449
REMARK  189  A    between atoms: _449  and  _450
REMARK  190  A    between atoms: _450  and  _451
REMARK  191  A    between atoms: _460  and  _462
REMARK  192  A    between atoms: _462  and  _463
REMARK  193  A    between atoms: _462  and  _465
REMARK  194  A    between atoms: _465  and  _466
REMARK  195  A    between atoms: _469  and  _471
REMARK  196  A    between atoms: _471  and  _472
REMARK  197  A    between atoms: _471  and  _474
REMARK  198  A    between atoms: _474  and  _475
REMARK  199  A    between atoms: _475  and  _476
REMARK  200  A    between atoms: _476  and  _477
REMARK  201  A    between atoms: _486  and  _488
REMARK  202  A    between atoms: _488  and  _489
REMARK  203  A    between atoms: _488  and  _491
REMARK  204  A    between atoms: _491  and  _492
REMARK  205  A    between atoms: _497  and  _499
REMARK  206  A    between atoms: _499  and  _500
REMARK  207  A    between atoms: _499  and  _502
REMARK  208  A    between atoms: _504  and  _506
REMARK  209  A    between atoms: _506  and  _507
REMARK  210  A    between atoms: _506  and  _509
REMARK  211  A    between atoms: _509  and  _510
REMARK  212  A    between atoms: _513  and  _515
REMARK  213  A    between atoms: _515  and  _516
REMARK  214  A    between atoms: _515  and  _518
REMARK  215  A    between atoms: _521  and  _523
REMARK  216  A    between atoms: _523  and  _524
REMARK  217  A    between atoms: _523  and  _526
REMARK  218  A    between atoms: _526  and  _527
REMARK  219  A    between atoms: _527  and  _528
REMARK  220  A    between atoms: _528  and  _529
REMARK  221  A    between atoms: _529  and  _530
REMARK  222  A    between atoms: _534  and  _536
REMARK  223  A    between atoms: _536  and  _537
REMARK  224  A    between atoms: _536  and  _539
REMARK  225  A    between atoms: _542  and  _544
REMARK  226  A    between atoms: _544  and  _545
REMARK  227  A    between atoms: _548  and  _550
REMARK  228  A    between atoms: _550  and  _551
REMARK  229  A    between atoms: _550  and  _553
REMARK  230  A    between atoms: _553  and  _554
REMARK  231  A    between atoms: _557  and  _559
REMARK  232  A    between atoms: _559  and  _560
REMARK  233  A    between atoms: _559  and  _562
REMARK  234  A    between atoms: _562  and  _563
REMARK  235  A    between atoms: _569  and  _571
REMARK  236  A    between atoms: _571  and  _572
REMARK  237  A    between atoms: _574  and  _576
REMARK  238  A    between atoms: _576  and  _577
REMARK  239  A    between atoms: _576  and  _579
REMARK  240  A    between atoms: _579  and  _580
REMARK  241  A    between atoms: _583  and  _585
REMARK  242  A    between atoms: _585  and  _586
REMARK  243  A    between atoms: _585  and  _588
REMARK  244  A    between atoms: _588  and  _589
REMARK                            x       y       z     vdW  Elec       q    Type
REMARK                         _______ _______ _______ _____ _____    ______ ____
ROOT
ATOM      1  O   HOH     1      27.494  18.015  18.877  0.00  0.00    +0.000 OA
ENDROOT
TORSDOF 0
REMARK  Name = ../refined-set-2016/3gvu/3gvu_pocket.pdb
REMARK  244 active torsions:
REMARK  status: ('A' for Active; 'I' for Inactive)
REMARK    1  A    between atoms: _1  and  _3
REMARK    2  A    between atoms: _3  and  _4
REMARK    3  A    between atoms: _3  and  _6
REMARK    4  A    between atoms: _6  and  _7
REMARK    5  A    between atoms: _10  and  _12
REMARK    6  A    between atoms: _12  and  _13
REMARK    7  A    between atoms: _15  and  _17
REMARK    8  A    between atoms: _17  and  _18
REMARK    9  A    between atoms: _17  and  _20
REMARK   10  A    between atoms: _20  and  _21
REMARK   11  A    between atoms: _21  and  _22
REMARK   12  A    between atoms: _27  and  _29
REMARK   13  A    between atoms: _29  and  _30
REMARK   14  A    between atoms: _29  and  _32
REMARK   15  A    between atoms: _32  and  _33
REMARK   16  A    between atoms: _38  and  _39
REMARK   17  A    between atoms: _41  and  _43
REMARK   18  A    between atoms: _43  and  _44
REMARK   19  A    between atoms: _46  and  _48
REMARK   20  A    between atoms: _48  and  _49
REMARK   21  A    between atoms: _48  and  _51
REMARK   22  A    between atoms: _51  and  _52
REMARK   23  A    between atoms: _52  and  _53
REMARK   24  A    between atoms: _56  and  _58
REMARK   25  A    between atoms: _58  and  _59
REMARK   26  A    between atoms: _58  and  _61
REMARK   27  A    between atoms: _64  and  _66
REMARK   28  A    between atoms: _66  and  _67
REMARK   29  A    between atoms: _66  and  _69
REMARK   30  A    between atoms: _69  and  _70
REMARK   31  A    between atoms: _75  and  _76
REMARK   32  A    between atoms: _78  and  _80
REMARK   33  A    between atoms: _80  and  _81
REMARK   34  A    between atoms: _80  and  _83
REMARK   35  A    between atoms: _86  and  _88
REMARK   36  A    between atoms: _88  and  _89
REMARK   37  A    between atoms: _88  and  _91
REMARK   38  A    between atoms: _91  and  _92
REMARK   39  A    between atoms: _95  and  _97
REMARK   40  A    between atoms: _97  and  _98
REMARK   41  A    between atoms: _97  and  _100
REMARK   42  A    between atoms: _103  and  _105
REMARK   43  A    between atoms: _105  and  _106
REMARK   44  A    between atoms: _109  and  _111
REMARK   45  A    between atoms: _111  and  _112
REMARK   46  A    between atoms: _111  and  _114
REMARK   47  A    between atoms: _117  and  _119
REMARK   48  A    between atoms: _119  and  _120
REMARK   49  A    between atoms: _119  and  _122
REMARK   50  A    between atoms: _122  and  _123
REMARK   51  A    between atoms: _123  and  _124
REMARK   52  A    between atoms: _124  and  _125
REMARK   53  A    between atoms: _125  and  _126
REMARK   54  A    between atoms: _130  and  _132
REMARK   55  A    between atoms: _132  and  _133
REMARK   56  A    between atoms: _132  and  _135
REMARK   57  A    between atoms: _135  and  _136
REMARK   58  A    between atoms: _139  and  _141
REMARK   59  A    between atoms: _141  and  _142
REMARK   60  A    between atoms: _141  and  _144
REMARK   61  A    between atoms: _144  and  _145
REMARK   62  A    between atoms: _145  and  _146
REMARK   63  A    between atoms: _149  and  _151
REMARK   64  A    between atoms: _151  and  _152
REMARK   65  A    between atoms: _151  and  _154
REMARK   66  A    between atoms: _154  and  _155
REMARK   67  A    between atoms: _161  and  _163
REMARK   68  A    between atoms: _163  and  _164
REMARK   69  A    between atoms: _163  and  _166
REMARK   70  A    between atoms: _166  and  _167
REMARK   71  A    between atoms: _167  and  _168
REMARK   72  A    between atoms: _168  and  _169
REMARK   73  A    between atoms: _169  and  _170
REMARK   74  A    between atoms: _174  and  _176
REMARK   75  A    between atoms: _176  and  _177
REMARK   76  A    between atoms: _176  and  _179
REMARK   77  A    between atoms: _179  and  _180
REMARK   78  A    between atoms: _180  and  _181
REMARK   79  A    between atoms: _184  and  _186
REMARK   80  A    between atoms: _186  and  _187
REMARK   81  A    between atoms: _190  and  _192
REMARK   82  A    between atoms: _192  and  _193
REMARK   83  A    between atoms: _192  and  _195
REMARK   84  A    between atoms: _198  and  _200
REMARK   85  A    between atoms: _200  and  _201
REMARK   86  A    between atoms: _200  and  _203
REMARK   87  A    between atoms: _203  and  _204
REMARK   88  A    between atoms: _204  and  _205
REMARK   89  A    between atoms: _207  and  _209
REMARK   90  A    between atoms: _209  and  _210
REMARK   91  A    between atoms: _209  and  _212
REMARK   92  A    between atoms: _212  and  _213
REMARK   93  A    between atoms: _213  and  _214
REMARK   94  A    between atoms: _214  and  _215
REMARK   95  A    between atoms: _215  and  _216
REMARK   96  A    between atoms: _220  and  _222
REMARK   97  A    between atoms: _222  and  _223
REMARK   98  A    between atoms: _222  and  _225
REMARK   99  A    between atoms: _225  and  _226
REMARK  100  A    between atoms: _229  and  _231
REMARK  101  A    between atoms: _231  and  _232
REMARK  102  A    between atoms: _231  and  _234
REMARK  103  A    between atoms: _234  and  _235
REMARK  104  A    between atoms: _238  and  _240
REMARK  105  A    between atoms: _240  and  _241
REMARK  106  A    between atoms: _240  and  _243
REMARK  107  A    between atoms: _246  and  _248
REMARK  108  A    between atoms: _248  and  _249
REMARK  109  A    between atoms: _248  and  _251
REMARK  110  A    between atoms: _251  and  _252
REMARK  111  A    between atoms: _252  and  _253
REMARK  112  A    between atoms: _258  and  _260
REMARK  113  A    between atoms: _260  and  _261
REMARK  114  A    between atoms: _260  and  _263
REMARK  115  A    between atoms: _263  and  _264
REMARK  116  A    between atoms: _267  and  _269
REMARK  117  A    between atoms: _269  and  _270
REMARK  118  A    between atoms: _269  and  _272
REMARK  119  A    between atoms: _272  and  _273
REMARK  120  A    between atoms: _276  and  _278
REMARK  121  A    between atoms: _278  and  _279
REMARK  122  A    between atoms: _281  and  _283
REMARK  123  A    between atoms: _283  and  _284
REMARK  124  A    between atoms: _283  and  _286
REMARK  125  A    between atoms: _286  and  _287
REMARK  126  A    between atoms: _292  and  _293
REMARK  127  A    between atoms: _295  and  _297
REMARK  128  A    between atoms: _297  and  _298
REMARK  129  A    between atoms: _297  and  _300
REMARK  130  A    between atoms: _300  and  _301
REMARK  131  A    between atoms: _304  and  _306
REMARK  132  A    between atoms: _306  and  _307
REMARK  133  A    between atoms: _306  and  _309
REMARK  134  A    between atoms: _312  and  _314
REMARK  135  A    between atoms: _314  and  _315
REMARK  136  A    between atoms: _314  and  _317
REMARK  137  A    between atoms: _317  and  _318
REMARK  138  A    between atoms: _321  and  _323
REMARK  139  A    between atoms: _323  and  _324
REMARK  140  A    between atoms: _323  and  _326
REMARK  141  A    between atoms: _326  and  _327
REMARK  142  A    between atoms: _327  and  _328
REMARK  143  A    between atoms: _331  and  _333
REMARK  144  A    between atoms: _333  and  _334
REMARK  145  A    between atoms: _333  and  _336
REMARK  146  A    between atoms: _336  and  _337
REMARK  147  A    between atoms: _342  and  _343
REMARK  148  A    between atoms: _345  and  _347
REMARK  149  A    between atoms: _347  and  _348
REMARK  150  A    between atoms: _347  and  _350
REMARK  151  A    between atoms: _350  and  _351
REMARK  152  A    between atoms: _351  and  _352
REMARK  153  A    between atoms: _355  and  _356
REMARK  154  A    between atoms: _361  and  _363
REMARK  155  A    between atoms: _363  and  _364
REMARK  156  A    between atoms: _363  and  _366
REMARK  157  A    between atoms: _366  and  _367
REMARK  158  A    between atoms: _372  and  _373
REMARK  159  A    between atoms: _375  and  _377
REMARK  160  A    between atoms: _377  and  _378
REMARK  161  A    between atoms: _380  and  _382
REMARK  162  A    between atoms: _382  and  _383
REMARK  163  A    between atoms: _382  and  _385
REMARK  164  A    between atoms: _385  and  _386
REMARK  165  A    between atoms: _391  and  _393
REMARK  166  A    between atoms: _393  and  _394
REMARK  167  A    between atoms: _393  and  _396
REMARK  168  A    between atoms: _396  and  _397
REMARK  169  A    between atoms: _400  and  _402
REMARK  170  A    between atoms: _402  and  _403
REMARK  171  A    between atoms: _402  and  _405
REMARK  172  A    between atoms: _405  and  _406
REMARK  173  A    between atoms: _411  and  _413
REMARK  174  A    between atoms: _413  and  _414
REMARK  175  A    between atoms: _413  and  _416
REMARK  176  A    between atoms: _416  and  _417
REMARK  177  A    between atoms: _423  and  _425
REMARK  178  A    between atoms: _425  and  _426
REMARK  179  A    between atoms: _425  and  _428
REMARK  180  A    between atoms: _428  and  _429
REMARK  181  A    between atoms: _432  and  _434
REMARK  182  A    between atoms: _434  and  _435
REMARK  183  A    between atoms: _434  and  _437
REMARK  184  A    between atoms: _437  and  _438
REMARK  185  A    between atoms: _443  and  _445
REMARK  186  A    between atoms: _445  and  _446
REMARK  187  A    between atoms: _445  and  _448
REMARK  188  A    between atoms: _448  and  _449
REMARK  189  A    between atoms: _449  and  _450
REMARK  190  A    between atoms: _450  and  _451
REMARK  191  A    between atoms: _460  and  _462
REMARK  192  A    between atoms: _462  and  _463
REMARK  193  A    between atoms: _462  and  _465
REMARK  194  A    between atoms: _465  and  _466
REMARK  195  A    between atoms: _469  and  _471
REMARK  196  A    between atoms: _471  and  _472
REMARK  197  A    between atoms: _471  and  _474
REMARK  198  A    between atoms: _474  and  _475
REMARK  199  A    between atoms: _475  and  _476
REMARK  200  A    between atoms: _476  and  _477
REMARK  201  A    between atoms: _486  and  _488
REMARK  202  A    between atoms: _488  and  _489
REMARK  203  A    between atoms: _488  and  _491
REMARK  204  A    between atoms: _491  and  _492
REMARK  205  A    between atoms: _497  and  _499
REMARK  206  A    between atoms: _499  and  _500
REMARK  207  A    between atoms: _499  and  _502
REMARK  208  A    between atoms: _504  and  _506
REMARK  209  A    between atoms: _506  and  _507
REMARK  210  A    between atoms: _506  and  _509
REMARK  211  A    between atoms: _509  and  _510
REMARK  212  A    between atoms: _513  and  _515
REMARK  213  A    between atoms: _515  and  _516
REMARK  214  A    between atoms: _515  and  _518
REMARK  215  A    between atoms: _521  and  _523
REMARK  216  A    between atoms: _523  and  _524
REMARK  217  A    between atoms: _523  and  _526
REMARK  218  A    between atoms: _526  and  _527
REMARK  219  A    between atoms: _527  and  _528
REMARK  220  A    between atoms: _528  and  _529
REMARK  221  A    between atoms: _529  and  _530
REMARK  222  A    between atoms: _534  and  _536
REMARK  223  A    between atoms: _536  and  _537
REMARK  224  A    between atoms: _536  and  _539
REMARK  225  A    between atoms: _542  and  _544
REMARK  226  A    between atoms: _544  and  _545
REMARK  227  A    between atoms: _548  and  _550
REMARK  228  A    between atoms: _550  and  _551
REMARK  229  A    between atoms: _550  and  _553
REMARK  230  A    between atoms: _553  and  _554
REMARK  231  A    between atoms: _557  and  _559
REMARK  232  A    between atoms: _559  and  _560
REMARK  233  A    between atoms: _559  and  _562
REMARK  234  A    between atoms: _562  and  _563
REMARK  235  A    between atoms: _569  and  _571
REMARK  236  A    between atoms: _571  and  _572
REMARK  237  A    between atoms: _574  and  _576
REMARK  238  A    between atoms: _576  and  _577
REMARK  239  A    between atoms: _576  and  _579
REMARK  240  A    between atoms: _579  and  _580
REMARK  241  A    between atoms: _583  and  _585
REMARK  242  A    between atoms: _585  and  _586
REMARK  243  A    between atoms: _585  and  _588
REMARK  244  A    between atoms: _588  and  _589
REMARK                            x       y       z     vdW  Elec       q    Type
REMARK                         _______ _______ _______ _____ _____    ______ ____
ROOT
ATOM      1  O   HOH     1       4.574   9.753  25.459  0.00  0.00    +0.000 OA
ENDROOT
TORSDOF 0
REMARK  Name = ../refined-set-2016/3gvu/3gvu_pocket.pdb
REMARK  244 active torsions:
REMARK  status: ('A' for Active; 'I' for Inactive)
REMARK    1  A    between atoms: _1  and  _3
REMARK    2  A    between atoms: _3  and  _4
REMARK    3  A    between atoms: _3  and  _6
REMARK    4  A    between atoms: _6  and  _7
REMARK    5  A    between atoms: _10  and  _12
REMARK    6  A    between atoms: _12  and  _13
REMARK    7  A    between atoms: _15  and  _17
REMARK    8  A    between atoms: _17  and  _18
REMARK    9  A    between atoms: _17  and  _20
REMARK   10  A    between atoms: _20  and  _21
REMARK   11  A    between atoms: _21  and  _22
REMARK   12  A    between atoms: _27  and  _29
REMARK   13  A    between atoms: _29  and  _30
REMARK   14  A    between atoms: _29  and  _32
REMARK   15  A    between atoms: _32  and  _33
REMARK   16  A    between atoms: _38  and  _39
REMARK   17  A    between atoms: _41  and  _43
REMARK   18  A    between atoms: _43  and  _44
REMARK   19  A    between atoms: _46  and  _48
REMARK   20  A    between atoms: _48  and  _49
REMARK   21  A    between atoms: _48  and  _51
REMARK   22  A    between atoms: _51  and  _52
REMARK   23  A    between atoms: _52  and  _53
REMARK   24  A    between atoms: _56  and  _58
REMARK   25  A    between atoms: _58  and  _59
REMARK   26  A    between atoms: _58  and  _61
REMARK   27  A    between atoms: _64  and  _66
REMARK   28  A    between atoms: _66  and  _67
REMARK   29  A    between atoms: _66  and  _69
REMARK   30  A    between atoms: _69  and  _70
REMARK   31  A    between atoms: _75  and  _76
REMARK   32  A    between atoms: _78  and  _80
REMARK   33  A    between atoms: _80  and  _81
REMARK   34  A    between atoms: _80  and  _83
REMARK   35  A    between atoms: _86  and  _88
REMARK   36  A    between atoms: _88  and  _89
REMARK   37  A    between atoms: _88  and  _91
REMARK   38  A    between atoms: _91  and  _92
REMARK   39  A    between atoms: _95  and  _97
REMARK   40  A    between atoms: _97  and  _98
REMARK   41  A    between atoms: _97  and  _100
REMARK   42  A    between atoms: _103  and  _105
REMARK   43  A    between atoms: _105  and  _106
REMARK   44  A    between atoms: _109  and  _111
REMARK   45  A    between atoms: _111  and  _112
REMARK   46  A    between atoms: _111  and  _114
REMARK   47  A    between atoms: _117  and  _119
REMARK   48  A    between atoms: _119  and  _120
REMARK   49  A    between atoms: _119  and  _122
REMARK   50  A    between atoms: _122  and  _123
REMARK   51  A    between atoms: _123  and  _124
REMARK   52  A    between atoms: _124  and  _125
REMARK   53  A    between atoms: _125  and  _126
REMARK   54  A    between atoms: _130  and  _132
REMARK   55  A    between atoms: _132  and  _133
REMARK   56  A    between atoms: _132  and  _135
REMARK   57  A    between atoms: _135  and  _136
REMARK   58  A    between atoms: _139  and  _141
REMARK   59  A    between atoms: _141  and  _142
REMARK   60  A    between atoms: _141  and  _144
REMARK   61  A    between atoms: _144  and  _145
REMARK   62  A    between atoms: _145  and  _146
REMARK   63  A    between atoms: _149  and  _151
REMARK   64  A    between atoms: _151  and  _152
REMARK   65  A    between atoms: _151  and  _154
REMARK   66  A    between atoms: _154  and  _155
REMARK   67  A    between atoms: _161  and  _163
REMARK   68  A    between atoms: _163  and  _164
REMARK   69  A    between atoms: _163  and  _166
REMARK   70  A    between atoms: _166  and  _167
REMARK   71  A    between atoms: _167  and  _168
REMARK   72  A    between atoms: _168  and  _169
REMARK   73  A    between atoms: _169  and  _170
REMARK   74  A    between atoms: _174  and  _176
REMARK   75  A    between atoms: _176  and  _177
REMARK   76  A    between atoms: _176  and  _179
REMARK   77  A    between atoms: _179  and  _180
REMARK   78  A    between atoms: _180  and  _181
REMARK   79  A    between atoms: _184  and  _186
REMARK   80  A    between atoms: _186  and  _187
REMARK   81  A    between atoms: _190  and  _192
REMARK   82  A    between atoms: _192  and  _193
REMARK   83  A    between atoms: _192  and  _195
REMARK   84  A    between atoms: _198  and  _200
REMARK   85  A    between atoms: _200  and  _201
REMARK   86  A    between atoms: _200  and  _203
REMARK   87  A    between atoms: _203  and  _204
REMARK   88  A    between atoms: _204  and  _205
REMARK   89  A    between atoms: _207  and  _209
REMARK   90  A    between atoms: _209  and  _210
REMARK   91  A    between atoms: _209  and  _212
REMARK   92  A    between atoms: _212  and  _213
REMARK   93  A    between atoms: _213  and  _214
REMARK   94  A    between atoms: _214  and  _215
REMARK   95  A    between atoms: _215  and  _216
REMARK   96  A    between atoms: _220  and  _222
REMARK   97  A    between atoms: _222  and  _223
REMARK   98  A    between atoms: _222  and  _225
REMARK   99  A    between atoms: _225  and  _226
REMARK  100  A    between atoms: _229  and  _231
REMARK  101  A    between atoms: _231  and  _232
REMARK  102  A    between atoms: _231  and  _234
REMARK  103  A    between atoms: _234  and  _235
REMARK  104  A    between atoms: _238  and  _240
REMARK  105  A    between atoms: _240  and  _241
REMARK  106  A    between atoms: _240  and  _243
REMARK  107  A    between atoms: _246  and  _248
REMARK  108  A    between atoms: _248  and  _249
REMARK  109  A    between atoms: _248  and  _251
REMARK  110  A    between atoms: _251  and  _252
REMARK  111  A    between atoms: _252  and  _253
REMARK  112  A    between atoms: _258  and  _260
REMARK  113  A    between atoms: _260  and  _261
REMARK  114  A    between atoms: _260  and  _263
REMARK  115  A    between atoms: _263  and  _264
REMARK  116  A    between atoms: _267  and  _269
REMARK  117  A    between atoms: _269  and  _270
REMARK  118  A    between atoms: _269  and  _272
REMARK  119  A    between atoms: _272  and  _273
REMARK  120  A    between atoms: _276  and  _278
REMARK  121  A    between atoms: _278  and  _279
REMARK  122  A    between atoms: _281  and  _283
REMARK  123  A    between atoms: _283  and  _284
REMARK  124  A    between atoms: _283  and  _286
REMARK  125  A    between atoms: _286  and  _287
REMARK  126  A    between atoms: _292  and  _293
REMARK  127  A    between atoms: _295  and  _297
REMARK  128  A    between atoms: _297  and  _298
REMARK  129  A    between atoms: _297  and  _300
REMARK  130  A    between atoms: _300  and  _301
REMARK  131  A    between atoms: _304  and  _306
REMARK  132  A    between atoms: _306  and  _307
REMARK  133  A    between atoms: _306  and  _309
REMARK  134  A    between atoms: _312  and  _314
REMARK  135  A    between atoms: _314  and  _315
REMARK  136  A    between atoms: _314  and  _317
REMARK  137  A    between atoms: _317  and  _318
REMARK  138  A    between atoms: _321  and  _323
REMARK  139  A    between atoms: _323  and  _324
REMARK  140  A    between atoms: _323  and  _326
REMARK  141  A    between atoms: _326  and  _327
REMARK  142  A    between atoms: _327  and  _328
REMARK  143  A    between atoms: _331  and  _333
REMARK  144  A    between atoms: _333  and  _334
REMARK  145  A    between atoms: _333  and  _336
REMARK  146  A    between atoms: _336  and  _337
REMARK  147  A    between atoms: _342  and  _343
REMARK  148  A    between atoms: _345  and  _347
REMARK  149  A    between atoms: _347  and  _348
REMARK  150  A    between atoms: _347  and  _350
REMARK  151  A    between atoms: _350  and  _351
REMARK  152  A    between atoms: _351  and  _352
REMARK  153  A    between atoms: _355  and  _356
REMARK  154  A    between atoms: _361  and  _363
REMARK  155  A    between atoms: _363  and  _364
REMARK  156  A    between atoms: _363  and  _366
REMARK  157  A    between atoms: _366  and  _367
REMARK  158  A    between atoms: _372  and  _373
REMARK  159  A    between atoms: _375  and  _377
REMARK  160  A    between atoms: _377  and  _378
REMARK  161  A    between atoms: _380  and  _382
REMARK  162  A    between atoms: _382  and  _383
REMARK  163  A    between atoms: _382  and  _385
REMARK  164  A    between atoms: _385  and  _386
REMARK  165  A    between atoms: _391  and  _393
REMARK  166  A    between atoms: _393  and  _394
REMARK  167  A    between atoms: _393  and  _396
REMARK  168  A    between atoms: _396  and  _397
REMARK  169  A    between atoms: _400  and  _402
REMARK  170  A    between atoms: _402  and  _403
REMARK  171  A    between atoms: _402  and  _405
REMARK  172  A    between atoms: _405  and  _406
REMARK  173  A    between atoms: _411  and  _413
REMARK  174  A    between atoms: _413  and  _414
REMARK  175  A    between atoms: _413  and  _416
REMARK  176  A    between atoms: _416  and  _417
REMARK  177  A    between atoms: _423  and  _425
REMARK  178  A    between atoms: _425  and  _426
REMARK  179  A    between atoms: _425  and  _428
REMARK  180  A    between atoms: _428  and  _429
REMARK  181  A    between atoms: _432  and  _434
REMARK  182  A    between atoms: _434  and  _435
REMARK  183  A    between atoms: _434  and  _437
REMARK  184  A    between atoms: _437  and  _438
REMARK  185  A    between atoms: _443  and  _445
REMARK  186  A    between atoms: _445  and  _446
REMARK  187  A    between atoms: _445  and  _448
REMARK  188  A    between atoms: _448  and  _449
REMARK  189  A    between atoms: _449  and  _450
REMARK  190  A    between atoms: _450  and  _451
REMARK  191  A    between atoms: _460  and  _462
REMARK  192  A    between atoms: _462  and  _463
REMARK  193  A    between atoms: _462  and  _465
REMARK  194  A    between atoms: _465  and  _466
REMARK  195  A    between atoms: _469  and  _471
REMARK  196  A    between atoms: _471  and  _472
REMARK  197  A    between atoms: _471  and  _474
REMARK  198  A    between atoms: _474  and  _475
REMARK  199  A    between atoms: _475  and  _476
REMARK  200  A    between atoms: _476  and  _477
REMARK  201  A    between atoms: _486  and  _488
REMARK  202  A    between atoms: _488  and  _489
REMARK  203  A    between atoms: _488  and  _491
REMARK  204  A    between atoms: _491  and  _492
REMARK  205  A    between atoms: _497  and  _499
REMARK  206  A    between atoms: _499  and  _500
REMARK  207  A    between atoms: _499  and  _502
REMARK  208  A    between atoms: _504  and  _506
REMARK  209  A    between atoms: _506  and  _507
REMARK  210  A    between atoms: _506  and  _509
REMARK  211  A    between atoms: _509  and  _510
REMARK  212  A    between atoms: _513  and  _515
REMARK  213  A    between atoms: _515  and  _516
REMARK  214  A    between atoms: _515  and  _518
REMARK  215  A    between atoms: _521  and  _523
REMARK  216  A    between atoms: _523  and  _524
REMARK  217  A    between atoms: _523  and  _526
REMARK  218  A    between atoms: _526  and  _527
REMARK  219  A    between atoms: _527  and  _528
REMARK  220  A    between atoms: _528  and  _529
REMARK  221  A    between atoms: _529  and  _530
REMARK  222  A    between atoms: _534  and  _536
REMARK  223  A    between atoms: _536  and  _537
REMARK  224  A    between atoms: _536  and  _539
REMARK  225  A    between atoms: _542  and  _544
REMARK  226  A    between atoms: _544  and  _545
REMARK  227  A    between atoms: _548  and  _550
REMARK  228  A    between atoms: _550  and  _551
REMARK  229  A    between atoms: _550  and  _553
REMARK  230  A    between atoms: _553  and  _554
REMARK  231  A    between atoms: _557  and  _559
REMARK  232  A    between atoms: _559  and  _560
REMARK  233  A    between atoms: _559  and  _562
REMARK  234  A    between atoms: _562  and  _563
REMARK  235  A    between atoms: _569  and  _571
REMARK  236  A    between atoms: _571  and  _572
REMARK  237  A    between atoms: _574  and  _576
REMARK  238  A    between atoms: _576  and  _577
REMARK  239  A    between atoms: _576  and  _579
REMARK  240  A    between atoms: _579  and  _580
REMARK  241  A    between atoms: _583  and  _585
REMARK  242  A    between atoms: _585  and  _586
REMARK  243  A    between atoms: _585  and  _588
REMARK  244  A    between atoms: _588  and  _589
REMARK                            x       y       z     vdW  Elec       q    Type
REMARK                         _______ _______ _______ _____ _____    ______ ____
ROOT
ATOM      1  O   HOH     1      15.377  17.756  21.527  0.00  0.00    +0.000 OA
ENDROOT
TORSDOF 0
REMARK  Name = ../refined-set-2016/3gvu/3gvu_pocket.pdb
REMARK  244 active torsions:
REMARK  status: ('A' for Active; 'I' for Inactive)
REMARK    1  A    between atoms: _1  and  _3
REMARK    2  A    between atoms: _3  and  _4
REMARK    3  A    between atoms: _3  and  _6
REMARK    4  A    between atoms: _6  and  _7
REMARK    5  A    between atoms: _10  and  _12
REMARK    6  A    between atoms: _12  and  _13
REMARK    7  A    between atoms: _15  and  _17
REMARK    8  A    between atoms: _17  and  _18
REMARK    9  A    between atoms: _17  and  _20
REMARK   10  A    between atoms: _20  and  _21
REMARK   11  A    between atoms: _21  and  _22
REMARK   12  A    between atoms: _27  and  _29
REMARK   13  A    between atoms: _29  and  _30
REMARK   14  A    between atoms: _29  and  _32
REMARK   15  A    between atoms: _32  and  _33
REMARK   16  A    between atoms: _38  and  _39
REMARK   17  A    between atoms: _41  and  _43
REMARK   18  A    between atoms: _43  and  _44
REMARK   19  A    between atoms: _46  and  _48
REMARK   20  A    between atoms: _48  and  _49
REMARK   21  A    between atoms: _48  and  _51
REMARK   22  A    between atoms: _51  and  _52
REMARK   23  A    between atoms: _52  and  _53
REMARK   24  A    between atoms: _56  and  _58
REMARK   25  A    between atoms: _58  and  _59
REMARK   26  A    between atoms: _58  and  _61
REMARK   27  A    between atoms: _64  and  _66
REMARK   28  A    between atoms: _66  and  _67
REMARK   29  A    between atoms: _66  and  _69
REMARK   30  A    between atoms: _69  and  _70
REMARK   31  A    between atoms: _75  and  _76
REMARK   32  A    between atoms: _78  and  _80
REMARK   33  A    between atoms: _80  and  _81
REMARK   34  A    between atoms: _80  and  _83
REMARK   35  A    between atoms: _86  and  _88
REMARK   36  A    between atoms: _88  and  _89
REMARK   37  A    between atoms: _88  and  _91
REMARK   38  A    between atoms: _91  and  _92
REMARK   39  A    between atoms: _95  and  _97
REMARK   40  A    between atoms: _97  and  _98
REMARK   41  A    between atoms: _97  and  _100
REMARK   42  A    between atoms: _103  and  _105
REMARK   43  A    between atoms: _105  and  _106
REMARK   44  A    between atoms: _109  and  _111
REMARK   45  A    between atoms: _111  and  _112
REMARK   46  A    between atoms: _111  and  _114
REMARK   47  A    between atoms: _117  and  _119
REMARK   48  A    between atoms: _119  and  _120
REMARK   49  A    between atoms: _119  and  _122
REMARK   50  A    between atoms: _122  and  _123
REMARK   51  A    between atoms: _123  and  _124
REMARK   52  A    between atoms: _124  and  _125
REMARK   53  A    between atoms: _125  and  _126
REMARK   54  A    between atoms: _130  and  _132
REMARK   55  A    between atoms: _132  and  _133
REMARK   56  A    between atoms: _132  and  _135
REMARK   57  A    between atoms: _135  and  _136
REMARK   58  A    between atoms: _139  and  _141
REMARK   59  A    between atoms: _141  and  _142
REMARK   60  A    between atoms: _141  and  _144
REMARK   61  A    between atoms: _144  and  _145
REMARK   62  A    between atoms: _145  and  _146
REMARK   63  A    between atoms: _149  and  _151
REMARK   64  A    between atoms: _151  and  _152
REMARK   65  A    between atoms: _151  and  _154
REMARK   66  A    between atoms: _154  and  _155
REMARK   67  A    between atoms: _161  and  _163
REMARK   68  A    between atoms: _163  and  _164
REMARK   69  A    between atoms: _163  and  _166
REMARK   70  A    between atoms: _166  and  _167
REMARK   71  A    between atoms: _167  and  _168
REMARK   72  A    between atoms: _168  and  _169
REMARK   73  A    between atoms: _169  and  _170
REMARK   74  A    between atoms: _174  and  _176
REMARK   75  A    between atoms: _176  and  _177
REMARK   76  A    between atoms: _176  and  _179
REMARK   77  A    between atoms: _179  and  _180
REMARK   78  A    between atoms: _180  and  _181
REMARK   79  A    between atoms: _184  and  _186
REMARK   80  A    between atoms: _186  and  _187
REMARK   81  A    between atoms: _190  and  _192
REMARK   82  A    between atoms: _192  and  _193
REMARK   83  A    between atoms: _192  and  _195
REMARK   84  A    between atoms: _198  and  _200
REMARK   85  A    between atoms: _200  and  _201
REMARK   86  A    between atoms: _200  and  _203
REMARK   87  A    between atoms: _203  and  _204
REMARK   88  A    between atoms: _204  and  _205
REMARK   89  A    between atoms: _207  and  _209
REMARK   90  A    between atoms: _209  and  _210
REMARK   91  A    between atoms: _209  and  _212
REMARK   92  A    between atoms: _212  and  _213
REMARK   93  A    between atoms: _213  and  _214
REMARK   94  A    between atoms: _214  and  _215
REMARK   95  A    between atoms: _215  and  _216
REMARK   96  A    between atoms: _220  and  _222
REMARK   97  A    between atoms: _222  and  _223
REMARK   98  A    between atoms: _222  and  _225
REMARK   99  A    between atoms: _225  and  _226
REMARK  100  A    between atoms: _229  and  _231
REMARK  101  A    between atoms: _231  and  _232
REMARK  102  A    between atoms: _231  and  _234
REMARK  103  A    between atoms: _234  and  _235
REMARK  104  A    between atoms: _238  and  _240
REMARK  105  A    between atoms: _240  and  _241
REMARK  106  A    between atoms: _240  and  _243
REMARK  107  A    between atoms: _246  and  _248
REMARK  108  A    between atoms: _248  and  _249
REMARK  109  A    between atoms: _248  and  _251
REMARK  110  A    between atoms: _251  and  _252
REMARK  111  A    between atoms: _252  and  _253
REMARK  112  A    between atoms: _258  and  _260
REMARK  113  A    between atoms: _260  and  _261
REMARK  114  A    between atoms: _260  and  _263
REMARK  115  A    between atoms: _263  and  _264
REMARK  116  A    between atoms: _267  and  _269
REMARK  117  A    between atoms: _269  and  _270
REMARK  118  A    between atoms: _269  and  _272
REMARK  119  A    between atoms: _272  and  _273
REMARK  120  A    between atoms: _276  and  _278
REMARK  121  A    between atoms: _278  and  _279
REMARK  122  A    between atoms: _281  and  _283
REMARK  123  A    between atoms: _283  and  _284
REMARK  124  A    between atoms: _283  and  _286
REMARK  125  A    between atoms: _286  and  _287
REMARK  126  A    between atoms: _292  and  _293
REMARK  127  A    between atoms: _295  and  _297
REMARK  128  A    between atoms: _297  and  _298
REMARK  129  A    between atoms: _297  and  _300
REMARK  130  A    between atoms: _300  and  _301
REMARK  131  A    between atoms: _304  and  _306
REMARK  132  A    between atoms: _306  and  _307
REMARK  133  A    between atoms: _306  and  _309
REMARK  134  A    between atoms: _312  and  _314
REMARK  135  A    between atoms: _314  and  _315
REMARK  136  A    between atoms: _314  and  _317
REMARK  137  A    between atoms: _317  and  _318
REMARK  138  A    between atoms: _321  and  _323
REMARK  139  A    between atoms: _323  and  _324
REMARK  140  A    between atoms: _323  and  _326
REMARK  141  A    between atoms: _326  and  _327
REMARK  142  A    between atoms: _327  and  _328
REMARK  143  A    between atoms: _331  and  _333
REMARK  144  A    between atoms: _333  and  _334
REMARK  145  A    between atoms: _333  and  _336
REMARK  146  A    between atoms: _336  and  _337
REMARK  147  A    between atoms: _342  and  _343
REMARK  148  A    between atoms: _345  and  _347
REMARK  149  A    between atoms: _347  and  _348
REMARK  150  A    between atoms: _347  and  _350
REMARK  151  A    between atoms: _350  and  _351
REMARK  152  A    between atoms: _351  and  _352
REMARK  153  A    between atoms: _355  and  _356
REMARK  154  A    between atoms: _361  and  _363
REMARK  155  A    between atoms: _363  and  _364
REMARK  156  A    between atoms: _363  and  _366
REMARK  157  A    between atoms: _366  and  _367
REMARK  158  A    between atoms: _372  and  _373
REMARK  159  A    between atoms: _375  and  _377
REMARK  160  A    between atoms: _377  and  _378
REMARK  161  A    between atoms: _380  and  _382
REMARK  162  A    between atoms: _382  and  _383
REMARK  163  A    between atoms: _382  and  _385
REMARK  164  A    between atoms: _385  and  _386
REMARK  165  A    between atoms: _391  and  _393
REMARK  166  A    between atoms: _393  and  _394
REMARK  167  A    between atoms: _393  and  _396
REMARK  168  A    between atoms: _396  and  _397
REMARK  169  A    between atoms: _400  and  _402
REMARK  170  A    between atoms: _402  and  _403
REMARK  171  A    between atoms: _402  and  _405
REMARK  172  A    between atoms: _405  and  _406
REMARK  173  A    between atoms: _411  and  _413
REMARK  174  A    between atoms: _413  and  _414
REMARK  175  A    between atoms: _413  and  _416
REMARK  176  A    between atoms: _416  and  _417
REMARK  177  A    between atoms: _423  and  _425
REMARK  178  A    between atoms: _425  and  _426
REMARK  179  A    between atoms: _425  and  _428
REMARK  180  A    between atoms: _428  and  _429
REMARK  181  A    between atoms: _432  and  _434
REMARK  182  A    between atoms: _434  and  _435
REMARK  183  A    between atoms: _434  and  _437
REMARK  184  A    between atoms: _437  and  _438
REMARK  185  A    between atoms: _443  and  _445
REMARK  186  A    between atoms: _445  and  _446
REMARK  187  A    between atoms: _445  and  _448
REMARK  188  A    between atoms: _448  and  _449
REMARK  189  A    between atoms: _449  and  _450
REMARK  190  A    between atoms: _450  and  _451
REMARK  191  A    between atoms: _460  and  _462
REMARK  192  A    between atoms: _462  and  _463
REMARK  193  A    between atoms: _462  and  _465
REMARK  194  A    between atoms: _465  and  _466
REMARK  195  A    between atoms: _469  and  _471
REMARK  196  A    between atoms: _471  and  _472
REMARK  197  A    between atoms: _471  and  _474
REMARK  198  A    between atoms: _474  and  _475
REMARK  199  A    between atoms: _475  and  _476
REMARK  200  A    between atoms: _476  and  _477
REMARK  201  A    between atoms: _486  and  _488
REMARK  202  A    between atoms: _488  and  _489
REMARK  203  A    between atoms: _488  and  _491
REMARK  204  A    between atoms: _491  and  _492
REMARK  205  A    between atoms: _497  and  _499
REMARK  206  A    between atoms: _499  and  _500
REMARK  207  A    between atoms: _499  and  _502
REMARK  208  A    between atoms: _504  and  _506
REMARK  209  A    between atoms: _506  and  _507
REMARK  210  A    between atoms: _506  and  _509
REMARK  211  A    between atoms: _509  and  _510
REMARK  212  A    between atoms: _513  and  _515
REMARK  213  A    between atoms: _515  and  _516
REMARK  214  A    between atoms: _515  and  _518
REMARK  215  A    between atoms: _521  and  _523
REMARK  216  A    between atoms: _523  and  _524
REMARK  217  A    between atoms: _523  and  _526
REMARK  218  A    between atoms: _526  and  _527
REMARK  219  A    between atoms: _527  and  _528
REMARK  220  A    between atoms: _528  and  _529
REMARK  221  A    between atoms: _529  and  _530
REMARK  222  A    between atoms: _534  and  _536
REMARK  223  A    between atoms: _536  and  _537
REMARK  224  A    between atoms: _536  and  _539
REMARK  225  A    between atoms: _542  and  _544
REMARK  226  A    between atoms: _544  and  _545
REMARK  227  A    between atoms: _548  and  _550
REMARK  228  A    between atoms: _550  and  _551
REMARK  229  A    between atoms: _550  and  _553
REMARK  230  A    between atoms: _553  and  _554
REMARK  231  A    between atoms: _557  and  _559
REMARK  232  A    between atoms: _559  and  _560
REMARK  233  A    between atoms: _559  and  _562
REMARK  234  A    between atoms: _562  and  _563
REMARK  235  A    between atoms: _569  and  _571
REMARK  236  A    between atoms: _571  and  _572
REMARK  237  A    between atoms: _574  and  _576
REMARK  238  A    between atoms: _576  and  _577
REMARK  239  A    between atoms: _576  and  _579
REMARK  240  A    between atoms: _579  and  _580
REMARK  241  A    between atoms: _583  and  _585
REMARK  242  A    between atoms: _585  and  _586
REMARK  243  A    between atoms: _585  and  _588
REMARK  244  A    between atoms: _588  and  _589
REMARK                            x       y       z     vdW  Elec       q    Type
REMARK                         _______ _______ _______ _____ _____    ______ ____
ROOT
ATOM      1  O   HOH     1       5.084   9.619  30.361  0.00  0.00    +0.000 OA
ENDROOT
TORSDOF 0
REMARK  Name = ../refined-set-2016/3gvu/3gvu_pocket.pdb
REMARK  244 active torsions:
REMARK  status: ('A' for Active; 'I' for Inactive)
REMARK    1  A    between atoms: _1  and  _3
REMARK    2  A    between atoms: _3  and  _4
REMARK    3  A    between atoms: _3  and  _6
REMARK    4  A    between atoms: _6  and  _7
REMARK    5  A    between atoms: _10  and  _12
REMARK    6  A    between atoms: _12  and  _13
REMARK    7  A    between atoms: _15  and  _17
REMARK    8  A    between atoms: _17  and  _18
REMARK    9  A    between atoms: _17  and  _20
REMARK   10  A    between atoms: _20  and  _21
REMARK   11  A    between atoms: _21  and  _22
REMARK   12  A    between atoms: _27  and  _29
REMARK   13  A    between atoms: _29  and  _30
REMARK   14  A    between atoms: _29  and  _32
REMARK   15  A    between atoms: _32  and  _33
REMARK   16  A    between atoms: _38  and  _39
REMARK   17  A    between atoms: _41  and  _43
REMARK   18  A    between atoms: _43  and  _44
REMARK   19  A    between atoms: _46  and  _48
REMARK   20  A    between atoms: _48  and  _49
REMARK   21  A    between atoms: _48  and  _51
REMARK   22  A    between atoms: _51  and  _52
REMARK   23  A    between atoms: _52  and  _53
REMARK   24  A    between atoms: _56  and  _58
REMARK   25  A    between atoms: _58  and  _59
REMARK   26  A    between atoms: _58  and  _61
REMARK   27  A    between atoms: _64  and  _66
REMARK   28  A    between atoms: _66  and  _67
REMARK   29  A    between atoms: _66  and  _69
REMARK   30  A    between atoms: _69  and  _70
REMARK   31  A    between atoms: _75  and  _76
REMARK   32  A    between atoms: _78  and  _80
REMARK   33  A    between atoms: _80  and  _81
REMARK   34  A    between atoms: _80  and  _83
REMARK   35  A    between atoms: _86  and  _88
REMARK   36  A    between atoms: _88  and  _89
REMARK   37  A    between atoms: _88  and  _91
REMARK   38  A    between atoms: _91  and  _92
REMARK   39  A    between atoms: _95  and  _97
REMARK   40  A    between atoms: _97  and  _98
REMARK   41  A    between atoms: _97  and  _100
REMARK   42  A    between atoms: _103  and  _105
REMARK   43  A    between atoms: _105  and  _106
REMARK   44  A    between atoms: _109  and  _111
REMARK   45  A    between atoms: _111  and  _112
REMARK   46  A    between atoms: _111  and  _114
REMARK   47  A    between atoms: _117  and  _119
REMARK   48  A    between atoms: _119  and  _120
REMARK   49  A    between atoms: _119  and  _122
REMARK   50  A    between atoms: _122  and  _123
REMARK   51  A    between atoms: _123  and  _124
REMARK   52  A    between atoms: _124  and  _125
REMARK   53  A    between atoms: _125  and  _126
REMARK   54  A    between atoms: _130  and  _132
REMARK   55  A    between atoms: _132  and  _133
REMARK   56  A    between atoms: _132  and  _135
REMARK   57  A    between atoms: _135  and  _136
REMARK   58  A    between atoms: _139  and  _141
REMARK   59  A    between atoms: _141  and  _142
REMARK   60  A    between atoms: _141  and  _144
REMARK   61  A    between atoms: _144  and  _145
REMARK   62  A    between atoms: _145  and  _146
REMARK   63  A    between atoms: _149  and  _151
REMARK   64  A    between atoms: _151  and  _152
REMARK   65  A    between atoms: _151  and  _154
REMARK   66  A    between atoms: _154  and  _155
REMARK   67  A    between atoms: _161  and  _163
REMARK   68  A    between atoms: _163  and  _164
REMARK   69  A    between atoms: _163  and  _166
REMARK   70  A    between atoms: _166  and  _167
REMARK   71  A    between atoms: _167  and  _168
REMARK   72  A    between atoms: _168  and  _169
REMARK   73  A    between atoms: _169  and  _170
REMARK   74  A    between atoms: _174  and  _176
REMARK   75  A    between atoms: _176  and  _177
REMARK   76  A    between atoms: _176  and  _179
REMARK   77  A    between atoms: _179  and  _180
REMARK   78  A    between atoms: _180  and  _181
REMARK   79  A    between atoms: _184  and  _186
REMARK   80  A    between atoms: _186  and  _187
REMARK   81  A    between atoms: _190  and  _192
REMARK   82  A    between atoms: _192  and  _193
REMARK   83  A    between atoms: _192  and  _195
REMARK   84  A    between atoms: _198  and  _200
REMARK   85  A    between atoms: _200  and  _201
REMARK   86  A    between atoms: _200  and  _203
REMARK   87  A    between atoms: _203  and  _204
REMARK   88  A    between atoms: _204  and  _205
REMARK   89  A    between atoms: _207  and  _209
REMARK   90  A    between atoms: _209  and  _210
REMARK   91  A    between atoms: _209  and  _212
REMARK   92  A    between atoms: _212  and  _213
REMARK   93  A    between atoms: _213  and  _214
REMARK   94  A    between atoms: _214  and  _215
REMARK   95  A    between atoms: _215  and  _216
REMARK   96  A    between atoms: _220  and  _222
REMARK   97  A    between atoms: _222  and  _223
REMARK   98  A    between atoms: _222  and  _225
REMARK   99  A    between atoms: _225  and  _226
REMARK  100  A    between atoms: _229  and  _231
REMARK  101  A    between atoms: _231  and  _232
REMARK  102  A    between atoms: _231  and  _234
REMARK  103  A    between atoms: _234  and  _235
REMARK  104  A    between atoms: _238  and  _240
REMARK  105  A    between atoms: _240  and  _241
REMARK  106  A    between atoms: _240  and  _243
REMARK  107  A    between atoms: _246  and  _248
REMARK  108  A    between atoms: _248  and  _249
REMARK  109  A    between atoms: _248  and  _251
REMARK  110  A    between atoms: _251  and  _252
REMARK  111  A    between atoms: _252  and  _253
REMARK  112  A    between atoms: _258  and  _260
REMARK  113  A    between atoms: _260  and  _261
REMARK  114  A    between atoms: _260  and  _263
REMARK  115  A    between atoms: _263  and  _264
REMARK  116  A    between atoms: _267  and  _269
REMARK  117  A    between atoms: _269  and  _270
REMARK  118  A    between atoms: _269  and  _272
REMARK  119  A    between atoms: _272  and  _273
REMARK  120  A    between atoms: _276  and  _278
REMARK  121  A    between atoms: _278  and  _279
REMARK  122  A    between atoms: _281  and  _283
REMARK  123  A    between atoms: _283  and  _284
REMARK  124  A    between atoms: _283  and  _286
REMARK  125  A    between atoms: _286  and  _287
REMARK  126  A    between atoms: _292  and  _293
REMARK  127  A    between atoms: _295  and  _297
REMARK  128  A    between atoms: _297  and  _298
REMARK  129  A    between atoms: _297  and  _300
REMARK  130  A    between atoms: _300  and  _301
REMARK  131  A    between atoms: _304  and  _306
REMARK  132  A    between atoms: _306  and  _307
REMARK  133  A    between atoms: _306  and  _309
REMARK  134  A    between atoms: _312  and  _314
REMARK  135  A    between atoms: _314  and  _315
REMARK  136  A    between atoms: _314  and  _317
REMARK  137  A    between atoms: _317  and  _318
REMARK  138  A    between atoms: _321  and  _323
REMARK  139  A    between atoms: _323  and  _324
REMARK  140  A    between atoms: _323  and  _326
REMARK  141  A    between atoms: _326  and  _327
REMARK  142  A    between atoms: _327  and  _328
REMARK  143  A    between atoms: _331  and  _333
REMARK  144  A    between atoms: _333  and  _334
REMARK  145  A    between atoms: _333  and  _336
REMARK  146  A    between atoms: _336  and  _337
REMARK  147  A    between atoms: _342  and  _343
REMARK  148  A    between atoms: _345  and  _347
REMARK  149  A    between atoms: _347  and  _348
REMARK  150  A    between atoms: _347  and  _350
REMARK  151  A    between atoms: _350  and  _351
REMARK  152  A    between atoms: _351  and  _352
REMARK  153  A    between atoms: _355  and  _356
REMARK  154  A    between atoms: _361  and  _363
REMARK  155  A    between atoms: _363  and  _364
REMARK  156  A    between atoms: _363  and  _366
REMARK  157  A    between atoms: _366  and  _367
REMARK  158  A    between atoms: _372  and  _373
REMARK  159  A    between atoms: _375  and  _377
REMARK  160  A    between atoms: _377  and  _378
REMARK  161  A    between atoms: _380  and  _382
REMARK  162  A    between atoms: _382  and  _383
REMARK  163  A    between atoms: _382  and  _385
REMARK  164  A    between atoms: _385  and  _386
REMARK  165  A    between atoms: _391  and  _393
REMARK  166  A    between atoms: _393  and  _394
REMARK  167  A    between atoms: _393  and  _396
REMARK  168  A    between atoms: _396  and  _397
REMARK  169  A    between atoms: _400  and  _402
REMARK  170  A    between atoms: _402  and  _403
REMARK  171  A    between atoms: _402  and  _405
REMARK  172  A    between atoms: _405  and  _406
REMARK  173  A    between atoms: _411  and  _413
REMARK  174  A    between atoms: _413  and  _414
REMARK  175  A    between atoms: _413  and  _416
REMARK  176  A    between atoms: _416  and  _417
REMARK  177  A    between atoms: _423  and  _425
REMARK  178  A    between atoms: _425  and  _426
REMARK  179  A    between atoms: _425  and  _428
REMARK  180  A    between atoms: _428  and  _429
REMARK  181  A    between atoms: _432  and  _434
REMARK  182  A    between atoms: _434  and  _435
REMARK  183  A    between atoms: _434  and  _437
REMARK  184  A    between atoms: _437  and  _438
REMARK  185  A    between atoms: _443  and  _445
REMARK  186  A    between atoms: _445  and  _446
REMARK  187  A    between atoms: _445  and  _448
REMARK  188  A    between atoms: _448  and  _449
REMARK  189  A    between atoms: _449  and  _450
REMARK  190  A    between atoms: _450  and  _451
REMARK  191  A    between atoms: _460  and  _462
REMARK  192  A    between atoms: _462  and  _463
REMARK  193  A    between atoms: _462  and  _465
REMARK  194  A    between atoms: _465  and  _466
REMARK  195  A    between atoms: _469  and  _471
REMARK  196  A    between atoms: _471  and  _472
REMARK  197  A    between atoms: _471  and  _474
REMARK  198  A    between atoms: _474  and  _475
REMARK  199  A    between atoms: _475  and  _476
REMARK  200  A    between atoms: _476  and  _477
REMARK  201  A    between atoms: _486  and  _488
REMARK  202  A    between atoms: _488  and  _489
REMARK  203  A    between atoms: _488  and  _491
REMARK  204  A    between atoms: _491  and  _492
REMARK  205  A    between atoms: _497  and  _499
REMARK  206  A    between atoms: _499  and  _500
REMARK  207  A    between atoms: _499  and  _502
REMARK  208  A    between atoms: _504  and  _506
REMARK  209  A    between atoms: _506  and  _507
REMARK  210  A    between atoms: _506  and  _509
REMARK  211  A    between atoms: _509  and  _510
REMARK  212  A    between atoms: _513  and  _515
REMARK  213  A    between atoms: _515  and  _516
REMARK  214  A    between atoms: _515  and  _518
REMARK  215  A    between atoms: _521  and  _523
REMARK  216  A    between atoms: _523  and  _524
REMARK  217  A    between atoms: _523  and  _526
REMARK  218  A    between atoms: _526  and  _527
REMARK  219  A    between atoms: _527  and  _528
REMARK  220  A    between atoms: _528  and  _529
REMARK  221  A    between atoms: _529  and  _530
REMARK  222  A    between atoms: _534  and  _536
REMARK  223  A    between atoms: _536  and  _537
REMARK  224  A    between atoms: _536  and  _539
REMARK  225  A    between atoms: _542  and  _544
REMARK  226  A    between atoms: _544  and  _545
REMARK  227  A    between atoms: _548  and  _550
REMARK  228  A    between atoms: _550  and  _551
REMARK  229  A    between atoms: _550  and  _553
REMARK  230  A    between atoms: _553  and  _554
REMARK  231  A    between atoms: _557  and  _559
REMARK  232  A    between atoms: _559  and  _560
REMARK  233  A    between atoms: _559  and  _562
REMARK  234  A    between atoms: _562  and  _563
REMARK  235  A    between atoms: _569  and  _571
REMARK  236  A    between atoms: _571  and  _572
REMARK  237  A    between atoms: _574  and  _576
REMARK  238  A    between atoms: _576  and  _577
REMARK  239  A    between atoms: _576  and  _579
REMARK  240  A    between atoms: _579  and  _580
REMARK  241  A    between atoms: _583  and  _585
REMARK  242  A    between atoms: _585  and  _586
REMARK  243  A    between atoms: _585  and  _588
REMARK  244  A    between atoms: _588  and  _589
REMARK                            x       y       z     vdW  Elec       q    Type
REMARK                         _______ _______ _______ _____ _____    ______ ____
ROOT
ATOM      1  O   HOH     1       4.486  10.529  28.070  0.00  0.00    +0.000 OA
ENDROOT
TORSDOF 0
REMARK  Name = ../refined-set-2016/3gvu/3gvu_pocket.pdb
REMARK  244 active torsions:
REMARK  status: ('A' for Active; 'I' for Inactive)
REMARK    1  A    between atoms: _1  and  _3
REMARK    2  A    between atoms: _3  and  _4
REMARK    3  A    between atoms: _3  and  _6
REMARK    4  A    between atoms: _6  and  _7
REMARK    5  A    between atoms: _10  and  _12
REMARK    6  A    between atoms: _12  and  _13
REMARK    7  A    between atoms: _15  and  _17
REMARK    8  A    between atoms: _17  and  _18
REMARK    9  A    between atoms: _17  and  _20
REMARK   10  A    between atoms: _20  and  _21
REMARK   11  A    between atoms: _21  and  _22
REMARK   12  A    between atoms: _27  and  _29
REMARK   13  A    between atoms: _29  and  _30
REMARK   14  A    between atoms: _29  and  _32
REMARK   15  A    between atoms: _32  and  _33
REMARK   16  A    between atoms: _38  and  _39
REMARK   17  A    between atoms: _41  and  _43
REMARK   18  A    between atoms: _43  and  _44
REMARK   19  A    between atoms: _46  and  _48
REMARK   20  A    between atoms: _48  and  _49
REMARK   21  A    between atoms: _48  and  _51
REMARK   22  A    between atoms: _51  and  _52
REMARK   23  A    between atoms: _52  and  _53
REMARK   24  A    between atoms: _56  and  _58
REMARK   25  A    between atoms: _58  and  _59
REMARK   26  A    between atoms: _58  and  _61
REMARK   27  A    between atoms: _64  and  _66
REMARK   28  A    between atoms: _66  and  _67
REMARK   29  A    between atoms: _66  and  _69
REMARK   30  A    between atoms: _69  and  _70
REMARK   31  A    between atoms: _75  and  _76
REMARK   32  A    between atoms: _78  and  _80
REMARK   33  A    between atoms: _80  and  _81
REMARK   34  A    between atoms: _80  and  _83
REMARK   35  A    between atoms: _86  and  _88
REMARK   36  A    between atoms: _88  and  _89
REMARK   37  A    between atoms: _88  and  _91
REMARK   38  A    between atoms: _91  and  _92
REMARK   39  A    between atoms: _95  and  _97
REMARK   40  A    between atoms: _97  and  _98
REMARK   41  A    between atoms: _97  and  _100
REMARK   42  A    between atoms: _103  and  _105
REMARK   43  A    between atoms: _105  and  _106
REMARK   44  A    between atoms: _109  and  _111
REMARK   45  A    between atoms: _111  and  _112
REMARK   46  A    between atoms: _111  and  _114
REMARK   47  A    between atoms: _117  and  _119
REMARK   48  A    between atoms: _119  and  _120
REMARK   49  A    between atoms: _119  and  _122
REMARK   50  A    between atoms: _122  and  _123
REMARK   51  A    between atoms: _123  and  _124
REMARK   52  A    between atoms: _124  and  _125
REMARK   53  A    between atoms: _125  and  _126
REMARK   54  A    between atoms: _130  and  _132
REMARK   55  A    between atoms: _132  and  _133
REMARK   56  A    between atoms: _132  and  _135
REMARK   57  A    between atoms: _135  and  _136
REMARK   58  A    between atoms: _139  and  _141
REMARK   59  A    between atoms: _141  and  _142
REMARK   60  A    between atoms: _141  and  _144
REMARK   61  A    between atoms: _144  and  _145
REMARK   62  A    between atoms: _145  and  _146
REMARK   63  A    between atoms: _149  and  _151
REMARK   64  A    between atoms: _151  and  _152
REMARK   65  A    between atoms: _151  and  _154
REMARK   66  A    between atoms: _154  and  _155
REMARK   67  A    between atoms: _161  and  _163
REMARK   68  A    between atoms: _163  and  _164
REMARK   69  A    between atoms: _163  and  _166
REMARK   70  A    between atoms: _166  and  _167
REMARK   71  A    between atoms: _167  and  _168
REMARK   72  A    between atoms: _168  and  _169
REMARK   73  A    between atoms: _169  and  _170
REMARK   74  A    between atoms: _174  and  _176
REMARK   75  A    between atoms: _176  and  _177
REMARK   76  A    between atoms: _176  and  _179
REMARK   77  A    between atoms: _179  and  _180
REMARK   78  A    between atoms: _180  and  _181
REMARK   79  A    between atoms: _184  and  _186
REMARK   80  A    between atoms: _186  and  _187
REMARK   81  A    between atoms: _190  and  _192
REMARK   82  A    between atoms: _192  and  _193
REMARK   83  A    between atoms: _192  and  _195
REMARK   84  A    between atoms: _198  and  _200
REMARK   85  A    between atoms: _200  and  _201
REMARK   86  A    between atoms: _200  and  _203
REMARK   87  A    between atoms: _203  and  _204
REMARK   88  A    between atoms: _204  and  _205
REMARK   89  A    between atoms: _207  and  _209
REMARK   90  A    between atoms: _209  and  _210
REMARK   91  A    between atoms: _209  and  _212
REMARK   92  A    between atoms: _212  and  _213
REMARK   93  A    between atoms: _213  and  _214
REMARK   94  A    between atoms: _214  and  _215
REMARK   95  A    between atoms: _215  and  _216
REMARK   96  A    between atoms: _220  and  _222
REMARK   97  A    between atoms: _222  and  _223
REMARK   98  A    between atoms: _222  and  _225
REMARK   99  A    between atoms: _225  and  _226
REMARK  100  A    between atoms: _229  and  _231
REMARK  101  A    between atoms: _231  and  _232
REMARK  102  A    between atoms: _231  and  _234
REMARK  103  A    between atoms: _234  and  _235
REMARK  104  A    between atoms: _238  and  _240
REMARK  105  A    between atoms: _240  and  _241
REMARK  106  A    between atoms: _240  and  _243
REMARK  107  A    between atoms: _246  and  _248
REMARK  108  A    between atoms: _248  and  _249
REMARK  109  A    between atoms: _248  and  _251
REMARK  110  A    between atoms: _251  and  _252
REMARK  111  A    between atoms: _252  and  _253
REMARK  112  A    between atoms: _258  and  _260
REMARK  113  A    between atoms: _260  and  _261
REMARK  114  A    between atoms: _260  and  _263
REMARK  115  A    between atoms: _263  and  _264
REMARK  116  A    between atoms: _267  and  _269
REMARK  117  A    between atoms: _269  and  _270
REMARK  118  A    between atoms: _269  and  _272
REMARK  119  A    between atoms: _272  and  _273
REMARK  120  A    between atoms: _276  and  _278
REMARK  121  A    between atoms: _278  and  _279
REMARK  122  A    between atoms: _281  and  _283
REMARK  123  A    between atoms: _283  and  _284
REMARK  124  A    between atoms: _283  and  _286
REMARK  125  A    between atoms: _286  and  _287
REMARK  126  A    between atoms: _292  and  _293
REMARK  127  A    between atoms: _295  and  _297
REMARK  128  A    between atoms: _297  and  _298
REMARK  129  A    between atoms: _297  and  _300
REMARK  130  A    between atoms: _300  and  _301
REMARK  131  A    between atoms: _304  and  _306
REMARK  132  A    between atoms: _306  and  _307
REMARK  133  A    between atoms: _306  and  _309
REMARK  134  A    between atoms: _312  and  _314
REMARK  135  A    between atoms: _314  and  _315
REMARK  136  A    between atoms: _314  and  _317
REMARK  137  A    between atoms: _317  and  _318
REMARK  138  A    between atoms: _321  and  _323
REMARK  139  A    between atoms: _323  and  _324
REMARK  140  A    between atoms: _323  and  _326
REMARK  141  A    between atoms: _326  and  _327
REMARK  142  A    between atoms: _327  and  _328
REMARK  143  A    between atoms: _331  and  _333
REMARK  144  A    between atoms: _333  and  _334
REMARK  145  A    between atoms: _333  and  _336
REMARK  146  A    between atoms: _336  and  _337
REMARK  147  A    between atoms: _342  and  _343
REMARK  148  A    between atoms: _345  and  _347
REMARK  149  A    between atoms: _347  and  _348
REMARK  150  A    between atoms: _347  and  _350
REMARK  151  A    between atoms: _350  and  _351
REMARK  152  A    between atoms: _351  and  _352
REMARK  153  A    between atoms: _355  and  _356
REMARK  154  A    between atoms: _361  and  _363
REMARK  155  A    between atoms: _363  and  _364
REMARK  156  A    between atoms: _363  and  _366
REMARK  157  A    between atoms: _366  and  _367
REMARK  158  A    between atoms: _372  and  _373
REMARK  159  A    between atoms: _375  and  _377
REMARK  160  A    between atoms: _377  and  _378
REMARK  161  A    between atoms: _380  and  _382
REMARK  162  A    between atoms: _382  and  _383
REMARK  163  A    between atoms: _382  and  _385
REMARK  164  A    between atoms: _385  and  _386
REMARK  165  A    between atoms: _391  and  _393
REMARK  166  A    between atoms: _393  and  _394
REMARK  167  A    between atoms: _393  and  _396
REMARK  168  A    between atoms: _396  and  _397
REMARK  169  A    between atoms: _400  and  _402
REMARK  170  A    between atoms: _402  and  _403
REMARK  171  A    between atoms: _402  and  _405
REMARK  172  A    between atoms: _405  and  _406
REMARK  173  A    between atoms: _411  and  _413
REMARK  174  A    between atoms: _413  and  _414
REMARK  175  A    between atoms: _413  and  _416
REMARK  176  A    between atoms: _416  and  _417
REMARK  177  A    between atoms: _423  and  _425
REMARK  178  A    between atoms: _425  and  _426
REMARK  179  A    between atoms: _425  and  _428
REMARK  180  A    between atoms: _428  and  _429
REMARK  181  A    between atoms: _432  and  _434
REMARK  182  A    between atoms: _434  and  _435
REMARK  183  A    between atoms: _434  and  _437
REMARK  184  A    between atoms: _437  and  _438
REMARK  185  A    between atoms: _443  and  _445
REMARK  186  A    between atoms: _445  and  _446
REMARK  187  A    between atoms: _445  and  _448
REMARK  188  A    between atoms: _448  and  _449
REMARK  189  A    between atoms: _449  and  _450
REMARK  190  A    between atoms: _450  and  _451
REMARK  191  A    between atoms: _460  and  _462
REMARK  192  A    between atoms: _462  and  _463
REMARK  193  A    between atoms: _462  and  _465
REMARK  194  A    between atoms: _465  and  _466
REMARK  195  A    between atoms: _469  and  _471
REMARK  196  A    between atoms: _471  and  _472
REMARK  197  A    between atoms: _471  and  _474
REMARK  198  A    between atoms: _474  and  _475
REMARK  199  A    between atoms: _475  and  _476
REMARK  200  A    between atoms: _476  and  _477
REMARK  201  A    between atoms: _486  and  _488
REMARK  202  A    between atoms: _488  and  _489
REMARK  203  A    between atoms: _488  and  _491
REMARK  204  A    between atoms: _491  and  _492
REMARK  205  A    between atoms: _497  and  _499
REMARK  206  A    between atoms: _499  and  _500
REMARK  207  A    between atoms: _499  and  _502
REMARK  208  A    between atoms: _504  and  _506
REMARK  209  A    between atoms: _506  and  _507
REMARK  210  A    between atoms: _506  and  _509
REMARK  211  A    between atoms: _509  and  _510
REMARK  212  A    between atoms: _513  and  _515
REMARK  213  A    between atoms: _515  and  _516
REMARK  214  A    between atoms: _515  and  _518
REMARK  215  A    between atoms: _521  and  _523
REMARK  216  A    between atoms: _523  and  _524
REMARK  217  A    between atoms: _523  and  _526
REMARK  218  A    between atoms: _526  and  _527
REMARK  219  A    between atoms: _527  and  _528
REMARK  220  A    between atoms: _528  and  _529
REMARK  221  A    between atoms: _529  and  _530
REMARK  222  A    between atoms: _534  and  _536
REMARK  223  A    between atoms: _536  and  _537
REMARK  224  A    between atoms: _536  and  _539
REMARK  225  A    between atoms: _542  and  _544
REMARK  226  A    between atoms: _544  and  _545
REMARK  227  A    between atoms: _548  and  _550
REMARK  228  A    between atoms: _550  and  _551
REMARK  229  A    between atoms: _550  and  _553
REMARK  230  A    between atoms: _553  and  _554
REMARK  231  A    between atoms: _557  and  _559
REMARK  232  A    between atoms: _559  and  _560
REMARK  233  A    between atoms: _559  and  _562
REMARK  234  A    between atoms: _562  and  _563
REMARK  235  A    between atoms: _569  and  _571
REMARK  236  A    between atoms: _571  and  _572
REMARK  237  A    between atoms: _574  and  _576
REMARK  238  A    between atoms: _576  and  _577
REMARK  239  A    between atoms: _576  and  _579
REMARK  240  A    between atoms: _579  and  _580
REMARK  241  A    between atoms: _583  and  _585
REMARK  242  A    between atoms: _585  and  _586
REMARK  243  A    between atoms: _585  and  _588
REMARK  244  A    between atoms: _588  and  _589
REMARK                            x       y       z     vdW  Elec       q    Type
REMARK                         _______ _______ _______ _____ _____    ______ ____
ROOT
ATOM      1  O   HOH     1       2.096   2.228  26.366  0.00  0.00    +0.000 OA
ENDROOT
TORSDOF 0
REMARK  Name = ../refined-set-2016/3gvu/3gvu_pocket.pdb
REMARK  244 active torsions:
REMARK  status: ('A' for Active; 'I' for Inactive)
REMARK    1  A    between atoms: _1  and  _3
REMARK    2  A    between atoms: _3  and  _4
REMARK    3  A    between atoms: _3  and  _6
REMARK    4  A    between atoms: _6  and  _7
REMARK    5  A    between atoms: _10  and  _12
REMARK    6  A    between atoms: _12  and  _13
REMARK    7  A    between atoms: _15  and  _17
REMARK    8  A    between atoms: _17  and  _18
REMARK    9  A    between atoms: _17  and  _20
REMARK   10  A    between atoms: _20  and  _21
REMARK   11  A    between atoms: _21  and  _22
REMARK   12  A    between atoms: _27  and  _29
REMARK   13  A    between atoms: _29  and  _30
REMARK   14  A    between atoms: _29  and  _32
REMARK   15  A    between atoms: _32  and  _33
REMARK   16  A    between atoms: _38  and  _39
REMARK   17  A    between atoms: _41  and  _43
REMARK   18  A    between atoms: _43  and  _44
REMARK   19  A    between atoms: _46  and  _48
REMARK   20  A    between atoms: _48  and  _49
REMARK   21  A    between atoms: _48  and  _51
REMARK   22  A    between atoms: _51  and  _52
REMARK   23  A    between atoms: _52  and  _53
REMARK   24  A    between atoms: _56  and  _58
REMARK   25  A    between atoms: _58  and  _59
REMARK   26  A    between atoms: _58  and  _61
REMARK   27  A    between atoms: _64  and  _66
REMARK   28  A    between atoms: _66  and  _67
REMARK   29  A    between atoms: _66  and  _69
REMARK   30  A    between atoms: _69  and  _70
REMARK   31  A    between atoms: _75  and  _76
REMARK   32  A    between atoms: _78  and  _80
REMARK   33  A    between atoms: _80  and  _81
REMARK   34  A    between atoms: _80  and  _83
REMARK   35  A    between atoms: _86  and  _88
REMARK   36  A    between atoms: _88  and  _89
REMARK   37  A    between atoms: _88  and  _91
REMARK   38  A    between atoms: _91  and  _92
REMARK   39  A    between atoms: _95  and  _97
REMARK   40  A    between atoms: _97  and  _98
REMARK   41  A    between atoms: _97  and  _100
REMARK   42  A    between atoms: _103  and  _105
REMARK   43  A    between atoms: _105  and  _106
REMARK   44  A    between atoms: _109  and  _111
REMARK   45  A    between atoms: _111  and  _112
REMARK   46  A    between atoms: _111  and  _114
REMARK   47  A    between atoms: _117  and  _119
REMARK   48  A    between atoms: _119  and  _120
REMARK   49  A    between atoms: _119  and  _122
REMARK   50  A    between atoms: _122  and  _123
REMARK   51  A    between atoms: _123  and  _124
REMARK   52  A    between atoms: _124  and  _125
REMARK   53  A    between atoms: _125  and  _126
REMARK   54  A    between atoms: _130  and  _132
REMARK   55  A    between atoms: _132  and  _133
REMARK   56  A    between atoms: _132  and  _135
REMARK   57  A    between atoms: _135  and  _136
REMARK   58  A    between atoms: _139  and  _141
REMARK   59  A    between atoms: _141  and  _142
REMARK   60  A    between atoms: _141  and  _144
REMARK   61  A    between atoms: _144  and  _145
REMARK   62  A    between atoms: _145  and  _146
REMARK   63  A    between atoms: _149  and  _151
REMARK   64  A    between atoms: _151  and  _152
REMARK   65  A    between atoms: _151  and  _154
REMARK   66  A    between atoms: _154  and  _155
REMARK   67  A    between atoms: _161  and  _163
REMARK   68  A    between atoms: _163  and  _164
REMARK   69  A    between atoms: _163  and  _166
REMARK   70  A    between atoms: _166  and  _167
REMARK   71  A    between atoms: _167  and  _168
REMARK   72  A    between atoms: _168  and  _169
REMARK   73  A    between atoms: _169  and  _170
REMARK   74  A    between atoms: _174  and  _176
REMARK   75  A    between atoms: _176  and  _177
REMARK   76  A    between atoms: _176  and  _179
REMARK   77  A    between atoms: _179  and  _180
REMARK   78  A    between atoms: _180  and  _181
REMARK   79  A    between atoms: _184  and  _186
REMARK   80  A    between atoms: _186  and  _187
REMARK   81  A    between atoms: _190  and  _192
REMARK   82  A    between atoms: _192  and  _193
REMARK   83  A    between atoms: _192  and  _195
REMARK   84  A    between atoms: _198  and  _200
REMARK   85  A    between atoms: _200  and  _201
REMARK   86  A    between atoms: _200  and  _203
REMARK   87  A    between atoms: _203  and  _204
REMARK   88  A    between atoms: _204  and  _205
REMARK   89  A    between atoms: _207  and  _209
REMARK   90  A    between atoms: _209  and  _210
REMARK   91  A    between atoms: _209  and  _212
REMARK   92  A    between atoms: _212  and  _213
REMARK   93  A    between atoms: _213  and  _214
REMARK   94  A    between atoms: _214  and  _215
REMARK   95  A    between atoms: _215  and  _216
REMARK   96  A    between atoms: _220  and  _222
REMARK   97  A    between atoms: _222  and  _223
REMARK   98  A    between atoms: _222  and  _225
REMARK   99  A    between atoms: _225  and  _226
REMARK  100  A    between atoms: _229  and  _231
REMARK  101  A    between atoms: _231  and  _232
REMARK  102  A    between atoms: _231  and  _234
REMARK  103  A    between atoms: _234  and  _235
REMARK  104  A    between atoms: _238  and  _240
REMARK  105  A    between atoms: _240  and  _241
REMARK  106  A    between atoms: _240  and  _243
REMARK  107  A    between atoms: _246  and  _248
REMARK  108  A    between atoms: _248  and  _249
REMARK  109  A    between atoms: _248  and  _251
REMARK  110  A    between atoms: _251  and  _252
REMARK  111  A    between atoms: _252  and  _253
REMARK  112  A    between atoms: _258  and  _260
REMARK  113  A    between atoms: _260  and  _261
REMARK  114  A    between atoms: _260  and  _263
REMARK  115  A    between atoms: _263  and  _264
REMARK  116  A    between atoms: _267  and  _269
REMARK  117  A    between atoms: _269  and  _270
REMARK  118  A    between atoms: _269  and  _272
REMARK  119  A    between atoms: _272  and  _273
REMARK  120  A    between atoms: _276  and  _278
REMARK  121  A    between atoms: _278  and  _279
REMARK  122  A    between atoms: _281  and  _283
REMARK  123  A    between atoms: _283  and  _284
REMARK  124  A    between atoms: _283  and  _286
REMARK  125  A    between atoms: _286  and  _287
REMARK  126  A    between atoms: _292  and  _293
REMARK  127  A    between atoms: _295  and  _297
REMARK  128  A    between atoms: _297  and  _298
REMARK  129  A    between atoms: _297  and  _300
REMARK  130  A    between atoms: _300  and  _301
REMARK  131  A    between atoms: _304  and  _306
REMARK  132  A    between atoms: _306  and  _307
REMARK  133  A    between atoms: _306  and  _309
REMARK  134  A    between atoms: _312  and  _314
REMARK  135  A    between atoms: _314  and  _315
REMARK  136  A    between atoms: _314  and  _317
REMARK  137  A    between atoms: _317  and  _318
REMARK  138  A    between atoms: _321  and  _323
REMARK  139  A    between atoms: _323  and  _324
REMARK  140  A    between atoms: _323  and  _326
REMARK  141  A    between atoms: _326  and  _327
REMARK  142  A    between atoms: _327  and  _328
REMARK  143  A    between atoms: _331  and  _333
REMARK  144  A    between atoms: _333  and  _334
REMARK  145  A    between atoms: _333  and  _336
REMARK  146  A    between atoms: _336  and  _337
REMARK  147  A    between atoms: _342  and  _343
REMARK  148  A    between atoms: _345  and  _347
REMARK  149  A    between atoms: _347  and  _348
REMARK  150  A    between atoms: _347  and  _350
REMARK  151  A    between atoms: _350  and  _351
REMARK  152  A    between atoms: _351  and  _352
REMARK  153  A    between atoms: _355  and  _356
REMARK  154  A    between atoms: _361  and  _363
REMARK  155  A    between atoms: _363  and  _364
REMARK  156  A    between atoms: _363  and  _366
REMARK  157  A    between atoms: _366  and  _367
REMARK  158  A    between atoms: _372  and  _373
REMARK  159  A    between atoms: _375  and  _377
REMARK  160  A    between atoms: _377  and  _378
REMARK  161  A    between atoms: _380  and  _382
REMARK  162  A    between atoms: _382  and  _383
REMARK  163  A    between atoms: _382  and  _385
REMARK  164  A    between atoms: _385  and  _386
REMARK  165  A    between atoms: _391  and  _393
REMARK  166  A    between atoms: _393  and  _394
REMARK  167  A    between atoms: _393  and  _396
REMARK  168  A    between atoms: _396  and  _397
REMARK  169  A    between atoms: _400  and  _402
REMARK  170  A    between atoms: _402  and  _403
REMARK  171  A    between atoms: _402  and  _405
REMARK  172  A    between atoms: _405  and  _406
REMARK  173  A    between atoms: _411  and  _413
REMARK  174  A    between atoms: _413  and  _414
REMARK  175  A    between atoms: _413  and  _416
REMARK  176  A    between atoms: _416  and  _417
REMARK  177  A    between atoms: _423  and  _425
REMARK  178  A    between atoms: _425  and  _426
REMARK  179  A    between atoms: _425  and  _428
REMARK  180  A    between atoms: _428  and  _429
REMARK  181  A    between atoms: _432  and  _434
REMARK  182  A    between atoms: _434  and  _435
REMARK  183  A    between atoms: _434  and  _437
REMARK  184  A    between atoms: _437  and  _438
REMARK  185  A    between atoms: _443  and  _445
REMARK  186  A    between atoms: _445  and  _446
REMARK  187  A    between atoms: _445  and  _448
REMARK  188  A    between atoms: _448  and  _449
REMARK  189  A    between atoms: _449  and  _450
REMARK  190  A    between atoms: _450  and  _451
REMARK  191  A    between atoms: _460  and  _462
REMARK  192  A    between atoms: _462  and  _463
REMARK  193  A    between atoms: _462  and  _465
REMARK  194  A    between atoms: _465  and  _466
REMARK  195  A    between atoms: _469  and  _471
REMARK  196  A    between atoms: _471  and  _472
REMARK  197  A    between atoms: _471  and  _474
REMARK  198  A    between atoms: _474  and  _475
REMARK  199  A    between atoms: _475  and  _476
REMARK  200  A    between atoms: _476  and  _477
REMARK  201  A    between atoms: _486  and  _488
REMARK  202  A    between atoms: _488  and  _489
REMARK  203  A    between atoms: _488  and  _491
REMARK  204  A    between atoms: _491  and  _492
REMARK  205  A    between atoms: _497  and  _499
REMARK  206  A    between atoms: _499  and  _500
REMARK  207  A    between atoms: _499  and  _502
REMARK  208  A    between atoms: _504  and  _506
REMARK  209  A    between atoms: _506  and  _507
REMARK  210  A    between atoms: _506  and  _509
REMARK  211  A    between atoms: _509  and  _510
REMARK  212  A    between atoms: _513  and  _515
REMARK  213  A    between atoms: _515  and  _516
REMARK  214  A    between atoms: _515  and  _518
REMARK  215  A    between atoms: _521  and  _523
REMARK  216  A    between atoms: _523  and  _524
REMARK  217  A    between atoms: _523  and  _526
REMARK  218  A    between atoms: _526  and  _527
REMARK  219  A    between atoms: _527  and  _528
REMARK  220  A    between atoms: _528  and  _529
REMARK  221  A    between atoms: _529  and  _530
REMARK  222  A    between atoms: _534  and  _536
REMARK  223  A    between atoms: _536  and  _537
REMARK  224  A    between atoms: _536  and  _539
REMARK  225  A    between atoms: _542  and  _544
REMARK  226  A    between atoms: _544  and  _545
REMARK  227  A    between atoms: _548  and  _550
REMARK  228  A    between atoms: _550  and  _551
REMARK  229  A    between atoms: _550  and  _553
REMARK  230  A    between atoms: _553  and  _554
REMARK  231  A    between atoms: _557  and  _559
REMARK  232  A    between atoms: _559  and  _560
REMARK  233  A    between atoms: _559  and  _562
REMARK  234  A    between atoms: _562  and  _563
REMARK  235  A    between atoms: _569  and  _571
REMARK  236  A    between atoms: _571  and  _572
REMARK  237  A    between atoms: _574  and  _576
REMARK  238  A    between atoms: _576  and  _577
REMARK  239  A    between atoms: _576  and  _579
REMARK  240  A    between atoms: _579  and  _580
REMARK  241  A    between atoms: _583  and  _585
REMARK  242  A    between atoms: _585  and  _586
REMARK  243  A    between atoms: _585  and  _588
REMARK  244  A    between atoms: _588  and  _589
REMARK                            x       y       z     vdW  Elec       q    Type
REMARK                         _______ _______ _______ _____ _____    ______ ____
ROOT
ATOM      1  O   HOH     1      17.396  15.444  16.641  0.00  0.00    +0.000 OA
ENDROOT
TORSDOF 0
REMARK  Name = ../refined-set-2016/3gvu/3gvu_pocket.pdb
REMARK  244 active torsions:
REMARK  status: ('A' for Active; 'I' for Inactive)
REMARK    1  A    between atoms: _1  and  _3
REMARK    2  A    between atoms: _3  and  _4
REMARK    3  A    between atoms: _3  and  _6
REMARK    4  A    between atoms: _6  and  _7
REMARK    5  A    between atoms: _10  and  _12
REMARK    6  A    between atoms: _12  and  _13
REMARK    7  A    between atoms: _15  and  _17
REMARK    8  A    between atoms: _17  and  _18
REMARK    9  A    between atoms: _17  and  _20
REMARK   10  A    between atoms: _20  and  _21
REMARK   11  A    between atoms: _21  and  _22
REMARK   12  A    between atoms: _27  and  _29
REMARK   13  A    between atoms: _29  and  _30
REMARK   14  A    between atoms: _29  and  _32
REMARK   15  A    between atoms: _32  and  _33
REMARK   16  A    between atoms: _38  and  _39
REMARK   17  A    between atoms: _41  and  _43
REMARK   18  A    between atoms: _43  and  _44
REMARK   19  A    between atoms: _46  and  _48
REMARK   20  A    between atoms: _48  and  _49
REMARK   21  A    between atoms: _48  and  _51
REMARK   22  A    between atoms: _51  and  _52
REMARK   23  A    between atoms: _52  and  _53
REMARK   24  A    between atoms: _56  and  _58
REMARK   25  A    between atoms: _58  and  _59
REMARK   26  A    between atoms: _58  and  _61
REMARK   27  A    between atoms: _64  and  _66
REMARK   28  A    between atoms: _66  and  _67
REMARK   29  A    between atoms: _66  and  _69
REMARK   30  A    between atoms: _69  and  _70
REMARK   31  A    between atoms: _75  and  _76
REMARK   32  A    between atoms: _78  and  _80
REMARK   33  A    between atoms: _80  and  _81
REMARK   34  A    between atoms: _80  and  _83
REMARK   35  A    between atoms: _86  and  _88
REMARK   36  A    between atoms: _88  and  _89
REMARK   37  A    between atoms: _88  and  _91
REMARK   38  A    between atoms: _91  and  _92
REMARK   39  A    between atoms: _95  and  _97
REMARK   40  A    between atoms: _97  and  _98
REMARK   41  A    between atoms: _97  and  _100
REMARK   42  A    between atoms: _103  and  _105
REMARK   43  A    between atoms: _105  and  _106
REMARK   44  A    between atoms: _109  and  _111
REMARK   45  A    between atoms: _111  and  _112
REMARK   46  A    between atoms: _111  and  _114
REMARK   47  A    between atoms: _117  and  _119
REMARK   48  A    between atoms: _119  and  _120
REMARK   49  A    between atoms: _119  and  _122
REMARK   50  A    between atoms: _122  and  _123
REMARK   51  A    between atoms: _123  and  _124
REMARK   52  A    between atoms: _124  and  _125
REMARK   53  A    between atoms: _125  and  _126
REMARK   54  A    between atoms: _130  and  _132
REMARK   55  A    between atoms: _132  and  _133
REMARK   56  A    between atoms: _132  and  _135
REMARK   57  A    between atoms: _135  and  _136
REMARK   58  A    between atoms: _139  and  _141
REMARK   59  A    between atoms: _141  and  _142
REMARK   60  A    between atoms: _141  and  _144
REMARK   61  A    between atoms: _144  and  _145
REMARK   62  A    between atoms: _145  and  _146
REMARK   63  A    between atoms: _149  and  _151
REMARK   64  A    between atoms: _151  and  _152
REMARK   65  A    between atoms: _151  and  _154
REMARK   66  A    between atoms: _154  and  _155
REMARK   67  A    between atoms: _161  and  _163
REMARK   68  A    between atoms: _163  and  _164
REMARK   69  A    between atoms: _163  and  _166
REMARK   70  A    between atoms: _166  and  _167
REMARK   71  A    between atoms: _167  and  _168
REMARK   72  A    between atoms: _168  and  _169
REMARK   73  A    between atoms: _169  and  _170
REMARK   74  A    between atoms: _174  and  _176
REMARK   75  A    between atoms: _176  and  _177
REMARK   76  A    between atoms: _176  and  _179
REMARK   77  A    between atoms: _179  and  _180
REMARK   78  A    between atoms: _180  and  _181
REMARK   79  A    between atoms: _184  and  _186
REMARK   80  A    between atoms: _186  and  _187
REMARK   81  A    between atoms: _190  and  _192
REMARK   82  A    between atoms: _192  and  _193
REMARK   83  A    between atoms: _192  and  _195
REMARK   84  A    between atoms: _198  and  _200
REMARK   85  A    between atoms: _200  and  _201
REMARK   86  A    between atoms: _200  and  _203
REMARK   87  A    between atoms: _203  and  _204
REMARK   88  A    between atoms: _204  and  _205
REMARK   89  A    between atoms: _207  and  _209
REMARK   90  A    between atoms: _209  and  _210
REMARK   91  A    between atoms: _209  and  _212
REMARK   92  A    between atoms: _212  and  _213
REMARK   93  A    between atoms: _213  and  _214
REMARK   94  A    between atoms: _214  and  _215
REMARK   95  A    between atoms: _215  and  _216
REMARK   96  A    between atoms: _220  and  _222
REMARK   97  A    between atoms: _222  and  _223
REMARK   98  A    between atoms: _222  and  _225
REMARK   99  A    between atoms: _225  and  _226
REMARK  100  A    between atoms: _229  and  _231
REMARK  101  A    between atoms: _231  and  _232
REMARK  102  A    between atoms: _231  and  _234
REMARK  103  A    between atoms: _234  and  _235
REMARK  104  A    between atoms: _238  and  _240
REMARK  105  A    between atoms: _240  and  _241
REMARK  106  A    between atoms: _240  and  _243
REMARK  107  A    between atoms: _246  and  _248
REMARK  108  A    between atoms: _248  and  _249
REMARK  109  A    between atoms: _248  and  _251
REMARK  110  A    between atoms: _251  and  _252
REMARK  111  A    between atoms: _252  and  _253
REMARK  112  A    between atoms: _258  and  _260
REMARK  113  A    between atoms: _260  and  _261
REMARK  114  A    between atoms: _260  and  _263
REMARK  115  A    between atoms: _263  and  _264
REMARK  116  A    between atoms: _267  and  _269
REMARK  117  A    between atoms: _269  and  _270
REMARK  118  A    between atoms: _269  and  _272
REMARK  119  A    between atoms: _272  and  _273
REMARK  120  A    between atoms: _276  and  _278
REMARK  121  A    between atoms: _278  and  _279
REMARK  122  A    between atoms: _281  and  _283
REMARK  123  A    between atoms: _283  and  _284
REMARK  124  A    between atoms: _283  and  _286
REMARK  125  A    between atoms: _286  and  _287
REMARK  126  A    between atoms: _292  and  _293
REMARK  127  A    between atoms: _295  and  _297
REMARK  128  A    between atoms: _297  and  _298
REMARK  129  A    between atoms: _297  and  _300
REMARK  130  A    between atoms: _300  and  _301
REMARK  131  A    between atoms: _304  and  _306
REMARK  132  A    between atoms: _306  and  _307
REMARK  133  A    between atoms: _306  and  _309
REMARK  134  A    between atoms: _312  and  _314
REMARK  135  A    between atoms: _314  and  _315
REMARK  136  A    between atoms: _314  and  _317
REMARK  137  A    between atoms: _317  and  _318
REMARK  138  A    between atoms: _321  and  _323
REMARK  139  A    between atoms: _323  and  _324
REMARK  140  A    between atoms: _323  and  _326
REMARK  141  A    between atoms: _326  and  _327
REMARK  142  A    between atoms: _327  and  _328
REMARK  143  A    between atoms: _331  and  _333
REMARK  144  A    between atoms: _333  and  _334
REMARK  145  A    between atoms: _333  and  _336
REMARK  146  A    between atoms: _336  and  _337
REMARK  147  A    between atoms: _342  and  _343
REMARK  148  A    between atoms: _345  and  _347
REMARK  149  A    between atoms: _347  and  _348
REMARK  150  A    between atoms: _347  and  _350
REMARK  151  A    between atoms: _350  and  _351
REMARK  152  A    between atoms: _351  and  _352
REMARK  153  A    between atoms: _355  and  _356
REMARK  154  A    between atoms: _361  and  _363
REMARK  155  A    between atoms: _363  and  _364
REMARK  156  A    between atoms: _363  and  _366
REMARK  157  A    between atoms: _366  and  _367
REMARK  158  A    between atoms: _372  and  _373
REMARK  159  A    between atoms: _375  and  _377
REMARK  160  A    between atoms: _377  and  _378
REMARK  161  A    between atoms: _380  and  _382
REMARK  162  A    between atoms: _382  and  _383
REMARK  163  A    between atoms: _382  and  _385
REMARK  164  A    between atoms: _385  and  _386
REMARK  165  A    between atoms: _391  and  _393
REMARK  166  A    between atoms: _393  and  _394
REMARK  167  A    between atoms: _393  and  _396
REMARK  168  A    between atoms: _396  and  _397
REMARK  169  A    between atoms: _400  and  _402
REMARK  170  A    between atoms: _402  and  _403
REMARK  171  A    between atoms: _402  and  _405
REMARK  172  A    between atoms: _405  and  _406
REMARK  173  A    between atoms: _411  and  _413
REMARK  174  A    between atoms: _413  and  _414
REMARK  175  A    between atoms: _413  and  _416
REMARK  176  A    between atoms: _416  and  _417
REMARK  177  A    between atoms: _423  and  _425
REMARK  178  A    between atoms: _425  and  _426
REMARK  179  A    between atoms: _425  and  _428
REMARK  180  A    between atoms: _428  and  _429
REMARK  181  A    between atoms: _432  and  _434
REMARK  182  A    between atoms: _434  and  _435
REMARK  183  A    between atoms: _434  and  _437
REMARK  184  A    between atoms: _437  and  _438
REMARK  185  A    between atoms: _443  and  _445
REMARK  186  A    between atoms: _445  and  _446
REMARK  187  A    between atoms: _445  and  _448
REMARK  188  A    between atoms: _448  and  _449
REMARK  189  A    between atoms: _449  and  _450
REMARK  190  A    between atoms: _450  and  _451
REMARK  191  A    between atoms: _460  and  _462
REMARK  192  A    between atoms: _462  and  _463
REMARK  193  A    between atoms: _462  and  _465
REMARK  194  A    between atoms: _465  and  _466
REMARK  195  A    between atoms: _469  and  _471
REMARK  196  A    between atoms: _471  and  _472
REMARK  197  A    between atoms: _471  and  _474
REMARK  198  A    between atoms: _474  and  _475
REMARK  199  A    between atoms: _475  and  _476
REMARK  200  A    between atoms: _476  and  _477
REMARK  201  A    between atoms: _486  and  _488
REMARK  202  A    between atoms: _488  and  _489
REMARK  203  A    between atoms: _488  and  _491
REMARK  204  A    between atoms: _491  and  _492
REMARK  205  A    between atoms: _497  and  _499
REMARK  206  A    between atoms: _499  and  _500
REMARK  207  A    between atoms: _499  and  _502
REMARK  208  A    between atoms: _504  and  _506
REMARK  209  A    between atoms: _506  and  _507
REMARK  210  A    between atoms: _506  and  _509
REMARK  211  A    between atoms: _509  and  _510
REMARK  212  A    between atoms: _513  and  _515
REMARK  213  A    between atoms: _515  and  _516
REMARK  214  A    between atoms: _515  and  _518
REMARK  215  A    between atoms: _521  and  _523
REMARK  216  A    between atoms: _523  and  _524
REMARK  217  A    between atoms: _523  and  _526
REMARK  218  A    between atoms: _526  and  _527
REMARK  219  A    between atoms: _527  and  _528
REMARK  220  A    between atoms: _528  and  _529
REMARK  221  A    between atoms: _529  and  _530
REMARK  222  A    between atoms: _534  and  _536
REMARK  223  A    between atoms: _536  and  _537
REMARK  224  A    between atoms: _536  and  _539
REMARK  225  A    between atoms: _542  and  _544
REMARK  226  A    between atoms: _544  and  _545
REMARK  227  A    between atoms: _548  and  _550
REMARK  228  A    between atoms: _550  and  _551
REMARK  229  A    between atoms: _550  and  _553
REMARK  230  A    between atoms: _553  and  _554
REMARK  231  A    between atoms: _557  and  _559
REMARK  232  A    between atoms: _559  and  _560
REMARK  233  A    between atoms: _559  and  _562
REMARK  234  A    between atoms: _562  and  _563
REMARK  235  A    between atoms: _569  and  _571
REMARK  236  A    between atoms: _571  and  _572
REMARK  237  A    between atoms: _574  and  _576
REMARK  238  A    between atoms: _576  and  _577
REMARK  239  A    between atoms: _576  and  _579
REMARK  240  A    between atoms: _579  and  _580
REMARK  241  A    between atoms: _583  and  _585
REMARK  242  A    between atoms: _585  and  _586
REMARK  243  A    between atoms: _585  and  _588
REMARK  244  A    between atoms: _588  and  _589
REMARK                            x       y       z     vdW  Elec       q    Type
REMARK                         _______ _______ _______ _____ _____    ______ ____
ROOT
ATOM      1  O   HOH     1      19.996   5.864  20.497  0.00  0.00    +0.000 OA
ENDROOT
TORSDOF 0
REMARK  Name = ../refined-set-2016/3gvu/3gvu_pocket.pdb
REMARK  244 active torsions:
REMARK  status: ('A' for Active; 'I' for Inactive)
REMARK    1  A    between atoms: _1  and  _3
REMARK    2  A    between atoms: _3  and  _4
REMARK    3  A    between atoms: _3  and  _6
REMARK    4  A    between atoms: _6  and  _7
REMARK    5  A    between atoms: _10  and  _12
REMARK    6  A    between atoms: _12  and  _13
REMARK    7  A    between atoms: _15  and  _17
REMARK    8  A    between atoms: _17  and  _18
REMARK    9  A    between atoms: _17  and  _20
REMARK   10  A    between atoms: _20  and  _21
REMARK   11  A    between atoms: _21  and  _22
REMARK   12  A    between atoms: _27  and  _29
REMARK   13  A    between atoms: _29  and  _30
REMARK   14  A    between atoms: _29  and  _32
REMARK   15  A    between atoms: _32  and  _33
REMARK   16  A    between atoms: _38  and  _39
REMARK   17  A    between atoms: _41  and  _43
REMARK   18  A    between atoms: _43  and  _44
REMARK   19  A    between atoms: _46  and  _48
REMARK   20  A    between atoms: _48  and  _49
REMARK   21  A    between atoms: _48  and  _51
REMARK   22  A    between atoms: _51  and  _52
REMARK   23  A    between atoms: _52  and  _53
REMARK   24  A    between atoms: _56  and  _58
REMARK   25  A    between atoms: _58  and  _59
REMARK   26  A    between atoms: _58  and  _61
REMARK   27  A    between atoms: _64  and  _66
REMARK   28  A    between atoms: _66  and  _67
REMARK   29  A    between atoms: _66  and  _69
REMARK   30  A    between atoms: _69  and  _70
REMARK   31  A    between atoms: _75  and  _76
REMARK   32  A    between atoms: _78  and  _80
REMARK   33  A    between atoms: _80  and  _81
REMARK   34  A    between atoms: _80  and  _83
REMARK   35  A    between atoms: _86  and  _88
REMARK   36  A    between atoms: _88  and  _89
REMARK   37  A    between atoms: _88  and  _91
REMARK   38  A    between atoms: _91  and  _92
REMARK   39  A    between atoms: _95  and  _97
REMARK   40  A    between atoms: _97  and  _98
REMARK   41  A    between atoms: _97  and  _100
REMARK   42  A    between atoms: _103  and  _105
REMARK   43  A    between atoms: _105  and  _106
REMARK   44  A    between atoms: _109  and  _111
REMARK   45  A    between atoms: _111  and  _112
REMARK   46  A    between atoms: _111  and  _114
REMARK   47  A    between atoms: _117  and  _119
REMARK   48  A    between atoms: _119  and  _120
REMARK   49  A    between atoms: _119  and  _122
REMARK   50  A    between atoms: _122  and  _123
REMARK   51  A    between atoms: _123  and  _124
REMARK   52  A    between atoms: _124  and  _125
REMARK   53  A    between atoms: _125  and  _126
REMARK   54  A    between atoms: _130  and  _132
REMARK   55  A    between atoms: _132  and  _133
REMARK   56  A    between atoms: _132  and  _135
REMARK   57  A    between atoms: _135  and  _136
REMARK   58  A    between atoms: _139  and  _141
REMARK   59  A    between atoms: _141  and  _142
REMARK   60  A    between atoms: _141  and  _144
REMARK   61  A    between atoms: _144  and  _145
REMARK   62  A    between atoms: _145  and  _146
REMARK   63  A    between atoms: _149  and  _151
REMARK   64  A    between atoms: _151  and  _152
REMARK   65  A    between atoms: _151  and  _154
REMARK   66  A    between atoms: _154  and  _155
REMARK   67  A    between atoms: _161  and  _163
REMARK   68  A    between atoms: _163  and  _164
REMARK   69  A    between atoms: _163  and  _166
REMARK   70  A    between atoms: _166  and  _167
REMARK   71  A    between atoms: _167  and  _168
REMARK   72  A    between atoms: _168  and  _169
REMARK   73  A    between atoms: _169  and  _170
REMARK   74  A    between atoms: _174  and  _176
REMARK   75  A    between atoms: _176  and  _177
REMARK   76  A    between atoms: _176  and  _179
REMARK   77  A    between atoms: _179  and  _180
REMARK   78  A    between atoms: _180  and  _181
REMARK   79  A    between atoms: _184  and  _186
REMARK   80  A    between atoms: _186  and  _187
REMARK   81  A    between atoms: _190  and  _192
REMARK   82  A    between atoms: _192  and  _193
REMARK   83  A    between atoms: _192  and  _195
REMARK   84  A    between atoms: _198  and  _200
REMARK   85  A    between atoms: _200  and  _201
REMARK   86  A    between atoms: _200  and  _203
REMARK   87  A    between atoms: _203  and  _204
REMARK   88  A    between atoms: _204  and  _205
REMARK   89  A    between atoms: _207  and  _209
REMARK   90  A    between atoms: _209  and  _210
REMARK   91  A    between atoms: _209  and  _212
REMARK   92  A    between atoms: _212  and  _213
REMARK   93  A    between atoms: _213  and  _214
REMARK   94  A    between atoms: _214  and  _215
REMARK   95  A    between atoms: _215  and  _216
REMARK   96  A    between atoms: _220  and  _222
REMARK   97  A    between atoms: _222  and  _223
REMARK   98  A    between atoms: _222  and  _225
REMARK   99  A    between atoms: _225  and  _226
REMARK  100  A    between atoms: _229  and  _231
REMARK  101  A    between atoms: _231  and  _232
REMARK  102  A    between atoms: _231  and  _234
REMARK  103  A    between atoms: _234  and  _235
REMARK  104  A    between atoms: _238  and  _240
REMARK  105  A    between atoms: _240  and  _241
REMARK  106  A    between atoms: _240  and  _243
REMARK  107  A    between atoms: _246  and  _248
REMARK  108  A    between atoms: _248  and  _249
REMARK  109  A    between atoms: _248  and  _251
REMARK  110  A    between atoms: _251  and  _252
REMARK  111  A    between atoms: _252  and  _253
REMARK  112  A    between atoms: _258  and  _260
REMARK  113  A    between atoms: _260  and  _261
REMARK  114  A    between atoms: _260  and  _263
REMARK  115  A    between atoms: _263  and  _264
REMARK  116  A    between atoms: _267  and  _269
REMARK  117  A    between atoms: _269  and  _270
REMARK  118  A    between atoms: _269  and  _272
REMARK  119  A    between atoms: _272  and  _273
REMARK  120  A    between atoms: _276  and  _278
REMARK  121  A    between atoms: _278  and  _279
REMARK  122  A    between atoms: _281  and  _283
REMARK  123  A    between atoms: _283  and  _284
REMARK  124  A    between atoms: _283  and  _286
REMARK  125  A    between atoms: _286  and  _287
REMARK  126  A    between atoms: _292  and  _293
REMARK  127  A    between atoms: _295  and  _297
REMARK  128  A    between atoms: _297  and  _298
REMARK  129  A    between atoms: _297  and  _300
REMARK  130  A    between atoms: _300  and  _301
REMARK  131  A    between atoms: _304  and  _306
REMARK  132  A    between atoms: _306  and  _307
REMARK  133  A    between atoms: _306  and  _309
REMARK  134  A    between atoms: _312  and  _314
REMARK  135  A    between atoms: _314  and  _315
REMARK  136  A    between atoms: _314  and  _317
REMARK  137  A    between atoms: _317  and  _318
REMARK  138  A    between atoms: _321  and  _323
REMARK  139  A    between atoms: _323  and  _324
REMARK  140  A    between atoms: _323  and  _326
REMARK  141  A    between atoms: _326  and  _327
REMARK  142  A    between atoms: _327  and  _328
REMARK  143  A    between atoms: _331  and  _333
REMARK  144  A    between atoms: _333  and  _334
REMARK  145  A    between atoms: _333  and  _336
REMARK  146  A    between atoms: _336  and  _337
REMARK  147  A    between atoms: _342  and  _343
REMARK  148  A    between atoms: _345  and  _347
REMARK  149  A    between atoms: _347  and  _348
REMARK  150  A    between atoms: _347  and  _350
REMARK  151  A    between atoms: _350  and  _351
REMARK  152  A    between atoms: _351  and  _352
REMARK  153  A    between atoms: _355  and  _356
REMARK  154  A    between atoms: _361  and  _363
REMARK  155  A    between atoms: _363  and  _364
REMARK  156  A    between atoms: _363  and  _366
REMARK  157  A    between atoms: _366  and  _367
REMARK  158  A    between atoms: _372  and  _373
REMARK  159  A    between atoms: _375  and  _377
REMARK  160  A    between atoms: _377  and  _378
REMARK  161  A    between atoms: _380  and  _382
REMARK  162  A    between atoms: _382  and  _383
REMARK  163  A    between atoms: _382  and  _385
REMARK  164  A    between atoms: _385  and  _386
REMARK  165  A    between atoms: _391  and  _393
REMARK  166  A    between atoms: _393  and  _394
REMARK  167  A    between atoms: _393  and  _396
REMARK  168  A    between atoms: _396  and  _397
REMARK  169  A    between atoms: _400  and  _402
REMARK  170  A    between atoms: _402  and  _403
REMARK  171  A    between atoms: _402  and  _405
REMARK  172  A    between atoms: _405  and  _406
REMARK  173  A    between atoms: _411  and  _413
REMARK  174  A    between atoms: _413  and  _414
REMARK  175  A    between atoms: _413  and  _416
REMARK  176  A    between atoms: _416  and  _417
REMARK  177  A    between atoms: _423  and  _425
REMARK  178  A    between atoms: _425  and  _426
REMARK  179  A    between atoms: _425  and  _428
REMARK  180  A    between atoms: _428  and  _429
REMARK  181  A    between atoms: _432  and  _434
REMARK  182  A    between atoms: _434  and  _435
REMARK  183  A    between atoms: _434  and  _437
REMARK  184  A    between atoms: _437  and  _438
REMARK  185  A    between atoms: _443  and  _445
REMARK  186  A    between atoms: _445  and  _446
REMARK  187  A    between atoms: _445  and  _448
REMARK  188  A    between atoms: _448  and  _449
REMARK  189  A    between atoms: _449  and  _450
REMARK  190  A    between atoms: _450  and  _451
REMARK  191  A    between atoms: _460  and  _462
REMARK  192  A    between atoms: _462  and  _463
REMARK  193  A    between atoms: _462  and  _465
REMARK  194  A    between atoms: _465  and  _466
REMARK  195  A    between atoms: _469  and  _471
REMARK  196  A    between atoms: _471  and  _472
REMARK  197  A    between atoms: _471  and  _474
REMARK  198  A    between atoms: _474  and  _475
REMARK  199  A    between atoms: _475  and  _476
REMARK  200  A    between atoms: _476  and  _477
REMARK  201  A    between atoms: _486  and  _488
REMARK  202  A    between atoms: _488  and  _489
REMARK  203  A    between atoms: _488  and  _491
REMARK  204  A    between atoms: _491  and  _492
REMARK  205  A    between atoms: _497  and  _499
REMARK  206  A    between atoms: _499  and  _500
REMARK  207  A    between atoms: _499  and  _502
REMARK  208  A    between atoms: _504  and  _506
REMARK  209  A    between atoms: _506  and  _507
REMARK  210  A    between atoms: _506  and  _509
REMARK  211  A    between atoms: _509  and  _510
REMARK  212  A    between atoms: _513  and  _515
REMARK  213  A    between atoms: _515  and  _516
REMARK  214  A    between atoms: _515  and  _518
REMARK  215  A    between atoms: _521  and  _523
REMARK  216  A    between atoms: _523  and  _524
REMARK  217  A    between atoms: _523  and  _526
REMARK  218  A    between atoms: _526  and  _527
REMARK  219  A    between atoms: _527  and  _528
REMARK  220  A    between atoms: _528  and  _529
REMARK  221  A    between atoms: _529  and  _530
REMARK  222  A    between atoms: _534  and  _536
REMARK  223  A    between atoms: _536  and  _537
REMARK  224  A    between atoms: _536  and  _539
REMARK  225  A    between atoms: _542  and  _544
REMARK  226  A    between atoms: _544  and  _545
REMARK  227  A    between atoms: _548  and  _550
REMARK  228  A    between atoms: _550  and  _551
REMARK  229  A    between atoms: _550  and  _553
REMARK  230  A    between atoms: _553  and  _554
REMARK  231  A    between atoms: _557  and  _559
REMARK  232  A    between atoms: _559  and  _560
REMARK  233  A    between atoms: _559  and  _562
REMARK  234  A    between atoms: _562  and  _563
REMARK  235  A    between atoms: _569  and  _571
REMARK  236  A    between atoms: _571  and  _572
REMARK  237  A    between atoms: _574  and  _576
REMARK  238  A    between atoms: _576  and  _577
REMARK  239  A    between atoms: _576  and  _579
REMARK  240  A    between atoms: _579  and  _580
REMARK  241  A    between atoms: _583  and  _585
REMARK  242  A    between atoms: _585  and  _586
REMARK  243  A    between atoms: _585  and  _588
REMARK  244  A    between atoms: _588  and  _589
REMARK                            x       y       z     vdW  Elec       q    Type
REMARK                         _______ _______ _______ _____ _____    ______ ____
ROOT
ATOM      1  O   HOH     1      20.744   4.348  18.221  0.00  0.00    +0.000 OA
ENDROOT
TORSDOF 0
REMARK  Name = ../refined-set-2016/3gvu/3gvu_pocket.pdb
REMARK  244 active torsions:
REMARK  status: ('A' for Active; 'I' for Inactive)
REMARK    1  A    between atoms: _1  and  _3
REMARK    2  A    between atoms: _3  and  _4
REMARK    3  A    between atoms: _3  and  _6
REMARK    4  A    between atoms: _6  and  _7
REMARK    5  A    between atoms: _10  and  _12
REMARK    6  A    between atoms: _12  and  _13
REMARK    7  A    between atoms: _15  and  _17
REMARK    8  A    between atoms: _17  and  _18
REMARK    9  A    between atoms: _17  and  _20
REMARK   10  A    between atoms: _20  and  _21
REMARK   11  A    between atoms: _21  and  _22
REMARK   12  A    between atoms: _27  and  _29
REMARK   13  A    between atoms: _29  and  _30
REMARK   14  A    between atoms: _29  and  _32
REMARK   15  A    between atoms: _32  and  _33
REMARK   16  A    between atoms: _38  and  _39
REMARK   17  A    between atoms: _41  and  _43
REMARK   18  A    between atoms: _43  and  _44
REMARK   19  A    between atoms: _46  and  _48
REMARK   20  A    between atoms: _48  and  _49
REMARK   21  A    between atoms: _48  and  _51
REMARK   22  A    between atoms: _51  and  _52
REMARK   23  A    between atoms: _52  and  _53
REMARK   24  A    between atoms: _56  and  _58
REMARK   25  A    between atoms: _58  and  _59
REMARK   26  A    between atoms: _58  and  _61
REMARK   27  A    between atoms: _64  and  _66
REMARK   28  A    between atoms: _66  and  _67
REMARK   29  A    between atoms: _66  and  _69
REMARK   30  A    between atoms: _69  and  _70
REMARK   31  A    between atoms: _75  and  _76
REMARK   32  A    between atoms: _78  and  _80
REMARK   33  A    between atoms: _80  and  _81
REMARK   34  A    between atoms: _80  and  _83
REMARK   35  A    between atoms: _86  and  _88
REMARK   36  A    between atoms: _88  and  _89
REMARK   37  A    between atoms: _88  and  _91
REMARK   38  A    between atoms: _91  and  _92
REMARK   39  A    between atoms: _95  and  _97
REMARK   40  A    between atoms: _97  and  _98
REMARK   41  A    between atoms: _97  and  _100
REMARK   42  A    between atoms: _103  and  _105
REMARK   43  A    between atoms: _105  and  _106
REMARK   44  A    between atoms: _109  and  _111
REMARK   45  A    between atoms: _111  and  _112
REMARK   46  A    between atoms: _111  and  _114
REMARK   47  A    between atoms: _117  and  _119
REMARK   48  A    between atoms: _119  and  _120
REMARK   49  A    between atoms: _119  and  _122
REMARK   50  A    between atoms: _122  and  _123
REMARK   51  A    between atoms: _123  and  _124
REMARK   52  A    between atoms: _124  and  _125
REMARK   53  A    between atoms: _125  and  _126
REMARK   54  A    between atoms: _130  and  _132
REMARK   55  A    between atoms: _132  and  _133
REMARK   56  A    between atoms: _132  and  _135
REMARK   57  A    between atoms: _135  and  _136
REMARK   58  A    between atoms: _139  and  _141
REMARK   59  A    between atoms: _141  and  _142
REMARK   60  A    between atoms: _141  and  _144
REMARK   61  A    between atoms: _144  and  _145
REMARK   62  A    between atoms: _145  and  _146
REMARK   63  A    between atoms: _149  and  _151
REMARK   64  A    between atoms: _151  and  _152
REMARK   65  A    between atoms: _151  and  _154
REMARK   66  A    between atoms: _154  and  _155
REMARK   67  A    between atoms: _161  and  _163
REMARK   68  A    between atoms: _163  and  _164
REMARK   69  A    between atoms: _163  and  _166
REMARK   70  A    between atoms: _166  and  _167
REMARK   71  A    between atoms: _167  and  _168
REMARK   72  A    between atoms: _168  and  _169
REMARK   73  A    between atoms: _169  and  _170
REMARK   74  A    between atoms: _174  and  _176
REMARK   75  A    between atoms: _176  and  _177
REMARK   76  A    between atoms: _176  and  _179
REMARK   77  A    between atoms: _179  and  _180
REMARK   78  A    between atoms: _180  and  _181
REMARK   79  A    between atoms: _184  and  _186
REMARK   80  A    between atoms: _186  and  _187
REMARK   81  A    between atoms: _190  and  _192
REMARK   82  A    between atoms: _192  and  _193
REMARK   83  A    between atoms: _192  and  _195
REMARK   84  A    between atoms: _198  and  _200
REMARK   85  A    between atoms: _200  and  _201
REMARK   86  A    between atoms: _200  and  _203
REMARK   87  A    between atoms: _203  and  _204
REMARK   88  A    between atoms: _204  and  _205
REMARK   89  A    between atoms: _207  and  _209
REMARK   90  A    between atoms: _209  and  _210
REMARK   91  A    between atoms: _209  and  _212
REMARK   92  A    between atoms: _212  and  _213
REMARK   93  A    between atoms: _213  and  _214
REMARK   94  A    between atoms: _214  and  _215
REMARK   95  A    between atoms: _215  and  _216
REMARK   96  A    between atoms: _220  and  _222
REMARK   97  A    between atoms: _222  and  _223
REMARK   98  A    between atoms: _222  and  _225
REMARK   99  A    between atoms: _225  and  _226
REMARK  100  A    between atoms: _229  and  _231
REMARK  101  A    between atoms: _231  and  _232
REMARK  102  A    between atoms: _231  and  _234
REMARK  103  A    between atoms: _234  and  _235
REMARK  104  A    between atoms: _238  and  _240
REMARK  105  A    between atoms: _240  and  _241
REMARK  106  A    between atoms: _240  and  _243
REMARK  107  A    between atoms: _246  and  _248
REMARK  108  A    between atoms: _248  and  _249
REMARK  109  A    between atoms: _248  and  _251
REMARK  110  A    between atoms: _251  and  _252
REMARK  111  A    between atoms: _252  and  _253
REMARK  112  A    between atoms: _258  and  _260
REMARK  113  A    between atoms: _260  and  _261
REMARK  114  A    between atoms: _260  and  _263
REMARK  115  A    between atoms: _263  and  _264
REMARK  116  A    between atoms: _267  and  _269
REMARK  117  A    between atoms: _269  and  _270
REMARK  118  A    between atoms: _269  and  _272
REMARK  119  A    between atoms: _272  and  _273
REMARK  120  A    between atoms: _276  and  _278
REMARK  121  A    between atoms: _278  and  _279
REMARK  122  A    between atoms: _281  and  _283
REMARK  123  A    between atoms: _283  and  _284
REMARK  124  A    between atoms: _283  and  _286
REMARK  125  A    between atoms: _286  and  _287
REMARK  126  A    between atoms: _292  and  _293
REMARK  127  A    between atoms: _295  and  _297
REMARK  128  A    between atoms: _297  and  _298
REMARK  129  A    between atoms: _297  and  _300
REMARK  130  A    between atoms: _300  and  _301
REMARK  131  A    between atoms: _304  and  _306
REMARK  132  A    between atoms: _306  and  _307
REMARK  133  A    between atoms: _306  and  _309
REMARK  134  A    between atoms: _312  and  _314
REMARK  135  A    between atoms: _314  and  _315
REMARK  136  A    between atoms: _314  and  _317
REMARK  137  A    between atoms: _317  and  _318
REMARK  138  A    between atoms: _321  and  _323
REMARK  139  A    between atoms: _323  and  _324
REMARK  140  A    between atoms: _323  and  _326
REMARK  141  A    between atoms: _326  and  _327
REMARK  142  A    between atoms: _327  and  _328
REMARK  143  A    between atoms: _331  and  _333
REMARK  144  A    between atoms: _333  and  _334
REMARK  145  A    between atoms: _333  and  _336
REMARK  146  A    between atoms: _336  and  _337
REMARK  147  A    between atoms: _342  and  _343
REMARK  148  A    between atoms: _345  and  _347
REMARK  149  A    between atoms: _347  and  _348
REMARK  150  A    between atoms: _347  and  _350
REMARK  151  A    between atoms: _350  and  _351
REMARK  152  A    between atoms: _351  and  _352
REMARK  153  A    between atoms: _355  and  _356
REMARK  154  A    between atoms: _361  and  _363
REMARK  155  A    between atoms: _363  and  _364
REMARK  156  A    between atoms: _363  and  _366
REMARK  157  A    between atoms: _366  and  _367
REMARK  158  A    between atoms: _372  and  _373
REMARK  159  A    between atoms: _375  and  _377
REMARK  160  A    between atoms: _377  and  _378
REMARK  161  A    between atoms: _380  and  _382
REMARK  162  A    between atoms: _382  and  _383
REMARK  163  A    between atoms: _382  and  _385
REMARK  164  A    between atoms: _385  and  _386
REMARK  165  A    between atoms: _391  and  _393
REMARK  166  A    between atoms: _393  and  _394
REMARK  167  A    between atoms: _393  and  _396
REMARK  168  A    between atoms: _396  and  _397
REMARK  169  A    between atoms: _400  and  _402
REMARK  170  A    between atoms: _402  and  _403
REMARK  171  A    between atoms: _402  and  _405
REMARK  172  A    between atoms: _405  and  _406
REMARK  173  A    between atoms: _411  and  _413
REMARK  174  A    between atoms: _413  and  _414
REMARK  175  A    between atoms: _413  and  _416
REMARK  176  A    between atoms: _416  and  _417
REMARK  177  A    between atoms: _423  and  _425
REMARK  178  A    between atoms: _425  and  _426
REMARK  179  A    between atoms: _425  and  _428
REMARK  180  A    between atoms: _428  and  _429
REMARK  181  A    between atoms: _432  and  _434
REMARK  182  A    between atoms: _434  and  _435
REMARK  183  A    between atoms: _434  and  _437
REMARK  184  A    between atoms: _437  and  _438
REMARK  185  A    between atoms: _443  and  _445
REMARK  186  A    between atoms: _445  and  _446
REMARK  187  A    between atoms: _445  and  _448
REMARK  188  A    between atoms: _448  and  _449
REMARK  189  A    between atoms: _449  and  _450
REMARK  190  A    between atoms: _450  and  _451
REMARK  191  A    between atoms: _460  and  _462
REMARK  192  A    between atoms: _462  and  _463
REMARK  193  A    between atoms: _462  and  _465
REMARK  194  A    between atoms: _465  and  _466
REMARK  195  A    between atoms: _469  and  _471
REMARK  196  A    between atoms: _471  and  _472
REMARK  197  A    between atoms: _471  and  _474
REMARK  198  A    between atoms: _474  and  _475
REMARK  199  A    between atoms: _475  and  _476
REMARK  200  A    between atoms: _476  and  _477
REMARK  201  A    between atoms: _486  and  _488
REMARK  202  A    between atoms: _488  and  _489
REMARK  203  A    between atoms: _488  and  _491
REMARK  204  A    between atoms: _491  and  _492
REMARK  205  A    between atoms: _497  and  _499
REMARK  206  A    between atoms: _499  and  _500
REMARK  207  A    between atoms: _499  and  _502
REMARK  208  A    between atoms: _504  and  _506
REMARK  209  A    between atoms: _506  and  _507
REMARK  210  A    between atoms: _506  and  _509
REMARK  211  A    between atoms: _509  and  _510
REMARK  212  A    between atoms: _513  and  _515
REMARK  213  A    between atoms: _515  and  _516
REMARK  214  A    between atoms: _515  and  _518
REMARK  215  A    between atoms: _521  and  _523
REMARK  216  A    between atoms: _523  and  _524
REMARK  217  A    between atoms: _523  and  _526
REMARK  218  A    between atoms: _526  and  _527
REMARK  219  A    between atoms: _527  and  _528
REMARK  220  A    between atoms: _528  and  _529
REMARK  221  A    between atoms: _529  and  _530
REMARK  222  A    between atoms: _534  and  _536
REMARK  223  A    between atoms: _536  and  _537
REMARK  224  A    between atoms: _536  and  _539
REMARK  225  A    between atoms: _542  and  _544
REMARK  226  A    between atoms: _544  and  _545
REMARK  227  A    between atoms: _548  and  _550
REMARK  228  A    between atoms: _550  and  _551
REMARK  229  A    between atoms: _550  and  _553
REMARK  230  A    between atoms: _553  and  _554
REMARK  231  A    between atoms: _557  and  _559
REMARK  232  A    between atoms: _559  and  _560
REMARK  233  A    between atoms: _559  and  _562
REMARK  234  A    between atoms: _562  and  _563
REMARK  235  A    between atoms: _569  and  _571
REMARK  236  A    between atoms: _571  and  _572
REMARK  237  A    between atoms: _574  and  _576
REMARK  238  A    between atoms: _576  and  _577
REMARK  239  A    between atoms: _576  and  _579
REMARK  240  A    between atoms: _579  and  _580
REMARK  241  A    between atoms: _583  and  _585
REMARK  242  A    between atoms: _585  and  _586
REMARK  243  A    between atoms: _585  and  _588
REMARK  244  A    between atoms: _588  and  _589
REMARK                            x       y       z     vdW  Elec       q    Type
REMARK                         _______ _______ _______ _____ _____    ______ ____
ROOT
ATOM      1  O   HOH     1      -0.017   9.285  21.933  0.00  0.00    +0.000 OA
ENDROOT
TORSDOF 0
REMARK  Name = ../refined-set-2016/3gvu/3gvu_pocket.pdb
REMARK  244 active torsions:
REMARK  status: ('A' for Active; 'I' for Inactive)
REMARK    1  A    between atoms: _1  and  _3
REMARK    2  A    between atoms: _3  and  _4
REMARK    3  A    between atoms: _3  and  _6
REMARK    4  A    between atoms: _6  and  _7
REMARK    5  A    between atoms: _10  and  _12
REMARK    6  A    between atoms: _12  and  _13
REMARK    7  A    between atoms: _15  and  _17
REMARK    8  A    between atoms: _17  and  _18
REMARK    9  A    between atoms: _17  and  _20
REMARK   10  A    between atoms: _20  and  _21
REMARK   11  A    between atoms: _21  and  _22
REMARK   12  A    between atoms: _27  and  _29
REMARK   13  A    between atoms: _29  and  _30
REMARK   14  A    between atoms: _29  and  _32
REMARK   15  A    between atoms: _32  and  _33
REMARK   16  A    between atoms: _38  and  _39
REMARK   17  A    between atoms: _41  and  _43
REMARK   18  A    between atoms: _43  and  _44
REMARK   19  A    between atoms: _46  and  _48
REMARK   20  A    between atoms: _48  and  _49
REMARK   21  A    between atoms: _48  and  _51
REMARK   22  A    between atoms: _51  and  _52
REMARK   23  A    between atoms: _52  and  _53
REMARK   24  A    between atoms: _56  and  _58
REMARK   25  A    between atoms: _58  and  _59
REMARK   26  A    between atoms: _58  and  _61
REMARK   27  A    between atoms: _64  and  _66
REMARK   28  A    between atoms: _66  and  _67
REMARK   29  A    between atoms: _66  and  _69
REMARK   30  A    between atoms: _69  and  _70
REMARK   31  A    between atoms: _75  and  _76
REMARK   32  A    between atoms: _78  and  _80
REMARK   33  A    between atoms: _80  and  _81
REMARK   34  A    between atoms: _80  and  _83
REMARK   35  A    between atoms: _86  and  _88
REMARK   36  A    between atoms: _88  and  _89
REMARK   37  A    between atoms: _88  and  _91
REMARK   38  A    between atoms: _91  and  _92
REMARK   39  A    between atoms: _95  and  _97
REMARK   40  A    between atoms: _97  and  _98
REMARK   41  A    between atoms: _97  and  _100
REMARK   42  A    between atoms: _103  and  _105
REMARK   43  A    between atoms: _105  and  _106
REMARK   44  A    between atoms: _109  and  _111
REMARK   45  A    between atoms: _111  and  _112
REMARK   46  A    between atoms: _111  and  _114
REMARK   47  A    between atoms: _117  and  _119
REMARK   48  A    between atoms: _119  and  _120
REMARK   49  A    between atoms: _119  and  _122
REMARK   50  A    between atoms: _122  and  _123
REMARK   51  A    between atoms: _123  and  _124
REMARK   52  A    between atoms: _124  and  _125
REMARK   53  A    between atoms: _125  and  _126
REMARK   54  A    between atoms: _130  and  _132
REMARK   55  A    between atoms: _132  and  _133
REMARK   56  A    between atoms: _132  and  _135
REMARK   57  A    between atoms: _135  and  _136
REMARK   58  A    between atoms: _139  and  _141
REMARK   59  A    between atoms: _141  and  _142
REMARK   60  A    between atoms: _141  and  _144
REMARK   61  A    between atoms: _144  and  _145
REMARK   62  A    between atoms: _145  and  _146
REMARK   63  A    between atoms: _149  and  _151
REMARK   64  A    between atoms: _151  and  _152
REMARK   65  A    between atoms: _151  and  _154
REMARK   66  A    between atoms: _154  and  _155
REMARK   67  A    between atoms: _161  and  _163
REMARK   68  A    between atoms: _163  and  _164
REMARK   69  A    between atoms: _163  and  _166
REMARK   70  A    between atoms: _166  and  _167
REMARK   71  A    between atoms: _167  and  _168
REMARK   72  A    between atoms: _168  and  _169
REMARK   73  A    between atoms: _169  and  _170
REMARK   74  A    between atoms: _174  and  _176
REMARK   75  A    between atoms: _176  and  _177
REMARK   76  A    between atoms: _176  and  _179
REMARK   77  A    between atoms: _179  and  _180
REMARK   78  A    between atoms: _180  and  _181
REMARK   79  A    between atoms: _184  and  _186
REMARK   80  A    between atoms: _186  and  _187
REMARK   81  A    between atoms: _190  and  _192
REMARK   82  A    between atoms: _192  and  _193
REMARK   83  A    between atoms: _192  and  _195
REMARK   84  A    between atoms: _198  and  _200
REMARK   85  A    between atoms: _200  and  _201
REMARK   86  A    between atoms: _200  and  _203
REMARK   87  A    between atoms: _203  and  _204
REMARK   88  A    between atoms: _204  and  _205
REMARK   89  A    between atoms: _207  and  _209
REMARK   90  A    between atoms: _209  and  _210
REMARK   91  A    between atoms: _209  and  _212
REMARK   92  A    between atoms: _212  and  _213
REMARK   93  A    between atoms: _213  and  _214
REMARK   94  A    between atoms: _214  and  _215
REMARK   95  A    between atoms: _215  and  _216
REMARK   96  A    between atoms: _220  and  _222
REMARK   97  A    between atoms: _222  and  _223
REMARK   98  A    between atoms: _222  and  _225
REMARK   99  A    between atoms: _225  and  _226
REMARK  100  A    between atoms: _229  and  _231
REMARK  101  A    between atoms: _231  and  _232
REMARK  102  A    between atoms: _231  and  _234
REMARK  103  A    between atoms: _234  and  _235
REMARK  104  A    between atoms: _238  and  _240
REMARK  105  A    between atoms: _240  and  _241
REMARK  106  A    between atoms: _240  and  _243
REMARK  107  A    between atoms: _246  and  _248
REMARK  108  A    between atoms: _248  and  _249
REMARK  109  A    between atoms: _248  and  _251
REMARK  110  A    between atoms: _251  and  _252
REMARK  111  A    between atoms: _252  and  _253
REMARK  112  A    between atoms: _258  and  _260
REMARK  113  A    between atoms: _260  and  _261
REMARK  114  A    between atoms: _260  and  _263
REMARK  115  A    between atoms: _263  and  _264
REMARK  116  A    between atoms: _267  and  _269
REMARK  117  A    between atoms: _269  and  _270
REMARK  118  A    between atoms: _269  and  _272
REMARK  119  A    between atoms: _272  and  _273
REMARK  120  A    between atoms: _276  and  _278
REMARK  121  A    between atoms: _278  and  _279
REMARK  122  A    between atoms: _281  and  _283
REMARK  123  A    between atoms: _283  and  _284
REMARK  124  A    between atoms: _283  and  _286
REMARK  125  A    between atoms: _286  and  _287
REMARK  126  A    between atoms: _292  and  _293
REMARK  127  A    between atoms: _295  and  _297
REMARK  128  A    between atoms: _297  and  _298
REMARK  129  A    between atoms: _297  and  _300
REMARK  130  A    between atoms: _300  and  _301
REMARK  131  A    between atoms: _304  and  _306
REMARK  132  A    between atoms: _306  and  _307
REMARK  133  A    between atoms: _306  and  _309
REMARK  134  A    between atoms: _312  and  _314
REMARK  135  A    between atoms: _314  and  _315
REMARK  136  A    between atoms: _314  and  _317
REMARK  137  A    between atoms: _317  and  _318
REMARK  138  A    between atoms: _321  and  _323
REMARK  139  A    between atoms: _323  and  _324
REMARK  140  A    between atoms: _323  and  _326
REMARK  141  A    between atoms: _326  and  _327
REMARK  142  A    between atoms: _327  and  _328
REMARK  143  A    between atoms: _331  and  _333
REMARK  144  A    between atoms: _333  and  _334
REMARK  145  A    between atoms: _333  and  _336
REMARK  146  A    between atoms: _336  and  _337
REMARK  147  A    between atoms: _342  and  _343
REMARK  148  A    between atoms: _345  and  _347
REMARK  149  A    between atoms: _347  and  _348
REMARK  150  A    between atoms: _347  and  _350
REMARK  151  A    between atoms: _350  and  _351
REMARK  152  A    between atoms: _351  and  _352
REMARK  153  A    between atoms: _355  and  _356
REMARK  154  A    between atoms: _361  and  _363
REMARK  155  A    between atoms: _363  and  _364
REMARK  156  A    between atoms: _363  and  _366
REMARK  157  A    between atoms: _366  and  _367
REMARK  158  A    between atoms: _372  and  _373
REMARK  159  A    between atoms: _375  and  _377
REMARK  160  A    between atoms: _377  and  _378
REMARK  161  A    between atoms: _380  and  _382
REMARK  162  A    between atoms: _382  and  _383
REMARK  163  A    between atoms: _382  and  _385
REMARK  164  A    between atoms: _385  and  _386
REMARK  165  A    between atoms: _391  and  _393
REMARK  166  A    between atoms: _393  and  _394
REMARK  167  A    between atoms: _393  and  _396
REMARK  168  A    between atoms: _396  and  _397
REMARK  169  A    between atoms: _400  and  _402
REMARK  170  A    between atoms: _402  and  _403
REMARK  171  A    between atoms: _402  and  _405
REMARK  172  A    between atoms: _405  and  _406
REMARK  173  A    between atoms: _411  and  _413
REMARK  174  A    between atoms: _413  and  _414
REMARK  175  A    between atoms: _413  and  _416
REMARK  176  A    between atoms: _416  and  _417
REMARK  177  A    between atoms: _423  and  _425
REMARK  178  A    between atoms: _425  and  _426
REMARK  179  A    between atoms: _425  and  _428
REMARK  180  A    between atoms: _428  and  _429
REMARK  181  A    between atoms: _432  and  _434
REMARK  182  A    between atoms: _434  and  _435
REMARK  183  A    between atoms: _434  and  _437
REMARK  184  A    between atoms: _437  and  _438
REMARK  185  A    between atoms: _443  and  _445
REMARK  186  A    between atoms: _445  and  _446
REMARK  187  A    between atoms: _445  and  _448
REMARK  188  A    between atoms: _448  and  _449
REMARK  189  A    between atoms: _449  and  _450
REMARK  190  A    between atoms: _450  and  _451
REMARK  191  A    between atoms: _460  and  _462
REMARK  192  A    between atoms: _462  and  _463
REMARK  193  A    between atoms: _462  and  _465
REMARK  194  A    between atoms: _465  and  _466
REMARK  195  A    between atoms: _469  and  _471
REMARK  196  A    between atoms: _471  and  _472
REMARK  197  A    between atoms: _471  and  _474
REMARK  198  A    between atoms: _474  and  _475
REMARK  199  A    between atoms: _475  and  _476
REMARK  200  A    between atoms: _476  and  _477
REMARK  201  A    between atoms: _486  and  _488
REMARK  202  A    between atoms: _488  and  _489
REMARK  203  A    between atoms: _488  and  _491
REMARK  204  A    between atoms: _491  and  _492
REMARK  205  A    between atoms: _497  and  _499
REMARK  206  A    between atoms: _499  and  _500
REMARK  207  A    between atoms: _499  and  _502
REMARK  208  A    between atoms: _504  and  _506
REMARK  209  A    between atoms: _506  and  _507
REMARK  210  A    between atoms: _506  and  _509
REMARK  211  A    between atoms: _509  and  _510
REMARK  212  A    between atoms: _513  and  _515
REMARK  213  A    between atoms: _515  and  _516
REMARK  214  A    between atoms: _515  and  _518
REMARK  215  A    between atoms: _521  and  _523
REMARK  216  A    between atoms: _523  and  _524
REMARK  217  A    between atoms: _523  and  _526
REMARK  218  A    between atoms: _526  and  _527
REMARK  219  A    between atoms: _527  and  _528
REMARK  220  A    between atoms: _528  and  _529
REMARK  221  A    between atoms: _529  and  _530
REMARK  222  A    between atoms: _534  and  _536
REMARK  223  A    between atoms: _536  and  _537
REMARK  224  A    between atoms: _536  and  _539
REMARK  225  A    between atoms: _542  and  _544
REMARK  226  A    between atoms: _544  and  _545
REMARK  227  A    between atoms: _548  and  _550
REMARK  228  A    between atoms: _550  and  _551
REMARK  229  A    between atoms: _550  and  _553
REMARK  230  A    between atoms: _553  and  _554
REMARK  231  A    between atoms: _557  and  _559
REMARK  232  A    between atoms: _559  and  _560
REMARK  233  A    between atoms: _559  and  _562
REMARK  234  A    between atoms: _562  and  _563
REMARK  235  A    between atoms: _569  and  _571
REMARK  236  A    between atoms: _571  and  _572
REMARK  237  A    between atoms: _574  and  _576
REMARK  238  A    between atoms: _576  and  _577
REMARK  239  A    between atoms: _576  and  _579
REMARK  240  A    between atoms: _579  and  _580
REMARK  241  A    between atoms: _583  and  _585
REMARK  242  A    between atoms: _585  and  _586
REMARK  243  A    between atoms: _585  and  _588
REMARK  244  A    between atoms: _588  and  _589
REMARK                            x       y       z     vdW  Elec       q    Type
REMARK                         _______ _______ _______ _____ _____    ______ ____
ROOT
ATOM      1  O   HOH     1      22.079  13.822  15.826  0.00  0.00    +0.000 OA
ENDROOT
TORSDOF 0
