REMARK  Name = ../refined-set-2016/3tk2/3tk2_pocket.pdb
REMARK  130 active torsions:
REMARK  status: ('A' for Active; 'I' for Inactive)
REMARK    1  A    between atoms: _1  and  _3
REMARK    2  A    between atoms: _3  and  _4
REMARK    3  A    between atoms: _3  and  _6
REMARK    4  A    between atoms: _6  and  _7
REMARK    5  A    between atoms: _13  and  _15
REMARK    6  A    between atoms: _15  and  _16
REMARK    7  A    between atoms: _15  and  _18
REMARK    8  A    between atoms: _18  and  _19
REMARK    9  A    between atoms: _22  and  _24
REMARK   10  A    between atoms: _24  and  _25
REMARK   11  A    between atoms: _24  and  _27
REMARK   12  A    between atoms: _27  and  _28
REMARK   13  A    between atoms: _33  and  _34
REMARK   14  A    between atoms: _36  and  _38
REMARK   15  A    between atoms: _38  and  _39
REMARK   16  A    between atoms: _38  and  _41
REMARK   17  A    between atoms: _41  and  _42
REMARK   18  A    between atoms: _45  and  _47
REMARK   19  A    between atoms: _47  and  _48
REMARK   20  A    between atoms: _47  and  _50
REMARK   21  A    between atoms: _50  and  _51
REMARK   22  A    between atoms: _51  and  _52
REMARK   23  A    between atoms: _55  and  _57
REMARK   24  A    between atoms: _57  and  _58
REMARK   25  A    between atoms: _61  and  _63
REMARK   26  A    between atoms: _63  and  _64
REMARK   27  A    between atoms: _63  and  _66
REMARK   28  A    between atoms: _66  and  _67
REMARK   29  A    between atoms: _72  and  _73
REMARK   30  A    between atoms: _75  and  _77
REMARK   31  A    between atoms: _77  and  _78
REMARK   32  A    between atoms: _80  and  _82
REMARK   33  A    between atoms: _82  and  _83
REMARK   34  A    between atoms: _82  and  _85
REMARK   35  A    between atoms: _85  and  _86
REMARK   36  A    between atoms: _86  and  _87
REMARK   37  A    between atoms: _87  and  _88
REMARK   38  A    between atoms: _88  and  _89
REMARK   39  A    between atoms: _93  and  _95
REMARK   40  A    between atoms: _95  and  _96
REMARK   41  A    between atoms: _98  and  _100
REMARK   42  A    between atoms: _100  and  _101
REMARK   43  A    between atoms: _103  and  _105
REMARK   44  A    between atoms: _105  and  _106
REMARK   45  A    between atoms: _105  and  _108
REMARK   46  A    between atoms: _111  and  _113
REMARK   47  A    between atoms: _113  and  _114
REMARK   48  A    between atoms: _113  and  _116
REMARK   49  A    between atoms: _116  and  _117
REMARK   50  A    between atoms: _117  and  _118
REMARK   51  A    between atoms: _118  and  _119
REMARK   52  A    between atoms: _119  and  _120
REMARK   53  A    between atoms: _124  and  _126
REMARK   54  A    between atoms: _126  and  _127
REMARK   55  A    between atoms: _130  and  _132
REMARK   56  A    between atoms: _132  and  _133
REMARK   57  A    between atoms: _132  and  _135
REMARK   58  A    between atoms: _135  and  _136
REMARK   59  A    between atoms: _139  and  _141
REMARK   60  A    between atoms: _141  and  _142
REMARK   61  A    between atoms: _141  and  _144
REMARK   62  A    between atoms: _144  and  _145
REMARK   63  A    between atoms: _145  and  _146
REMARK   64  A    between atoms: _148  and  _150
REMARK   65  A    between atoms: _150  and  _151
REMARK   66  A    between atoms: _150  and  _153
REMARK   67  A    between atoms: _153  and  _154
REMARK   68  A    between atoms: _157  and  _159
REMARK   69  A    between atoms: _159  and  _160
REMARK   70  A    between atoms: _159  and  _162
REMARK   71  A    between atoms: _162  and  _163
REMARK   72  A    between atoms: _166  and  _168
REMARK   73  A    between atoms: _168  and  _169
REMARK   74  A    between atoms: _168  and  _171
REMARK   75  A    between atoms: _171  and  _172
REMARK   76  A    between atoms: _177  and  _178
REMARK   77  A    between atoms: _180  and  _182
REMARK   78  A    between atoms: _182  and  _183
REMARK   79  A    between atoms: _182  and  _185
REMARK   80  A    between atoms: _185  and  _186
REMARK   81  A    between atoms: _189  and  _191
REMARK   82  A    between atoms: _191  and  _192
REMARK   83  A    between atoms: _191  and  _194
REMARK   84  A    between atoms: _194  and  _195
REMARK   85  A    between atoms: _198  and  _200
REMARK   86  A    between atoms: _200  and  _201
REMARK   87  A    between atoms: _200  and  _203
REMARK   88  A    between atoms: _203  and  _204
REMARK   89  A    between atoms: _204  and  _205
REMARK   90  A    between atoms: _207  and  _209
REMARK   91  A    between atoms: _209  and  _210
REMARK   92  A    between atoms: _209  and  _212
REMARK   93  A    between atoms: _212  and  _213
REMARK   94  A    between atoms: _216  and  _218
REMARK   95  A    between atoms: _218  and  _219
REMARK   96  A    between atoms: _218  and  _221
REMARK   97  A    between atoms: _221  and  _222
REMARK   98  A    between atoms: _228  and  _230
REMARK   99  A    between atoms: _230  and  _231
REMARK  100  A    between atoms: _230  and  _233
REMARK  101  A    between atoms: _233  and  _234
REMARK  102  A    between atoms: _237  and  _239
REMARK  103  A    between atoms: _239  and  _240
REMARK  104  A    between atoms: _243  and  _245
REMARK  105  A    between atoms: _245  and  _246
REMARK  106  A    between atoms: _245  and  _248
REMARK  107  A    between atoms: _248  and  _249
REMARK  108  A    between atoms: _252  and  _254
REMARK  109  A    between atoms: _254  and  _255
REMARK  110  A    between atoms: _259  and  _260
REMARK  111  A    between atoms: _265  and  _267
REMARK  112  A    between atoms: _267  and  _268
REMARK  113  A    between atoms: _267  and  _270
REMARK  114  A    between atoms: _270  and  _271
REMARK  115  A    between atoms: _274  and  _276
REMARK  116  A    between atoms: _276  and  _277
REMARK  117  A    between atoms: _276  and  _279
REMARK  118  A    between atoms: _279  and  _280
REMARK  119  A    between atoms: _286  and  _288
REMARK  120  A    between atoms: _288  and  _289
REMARK  121  A    between atoms: _293  and  _294
REMARK  122  A    between atoms: _299  and  _301
REMARK  123  A    between atoms: _301  and  _302
REMARK  124  A    between atoms: _301  and  _304
REMARK  125  A    between atoms: _304  and  _305
REMARK  126  A    between atoms: _308  and  _310
REMARK  127  A    between atoms: _310  and  _311
REMARK  128  A    between atoms: _310  and  _313
REMARK  129  A    between atoms: _313  and  _314
REMARK  130  A    between atoms: _319  and  _320
REMARK                            x       y       z     vdW  Elec       q    Type
REMARK                         _______ _______ _______ _____ _____    ______ ____
ROOT
ATOM      1  CB  PHE A   1      10.354  -8.681  -5.298  0.00  0.00    +0.051 C 
ENDROOT
BRANCH   1   2
ATOM      2  CG  PHE A   1      10.135  -7.325  -5.875  0.00  0.00    -0.020 A 
ATOM      3  CD2 PHE A   1      10.849  -6.217  -5.424  0.00  0.00    -0.004 A 
ATOM      4  CE2 PHE A   1      10.658  -4.994  -6.019  0.00  0.00    -0.000 A 
ATOM      5  CZ  PHE A   1       9.838  -4.808  -7.020  0.00  0.00    -0.000 A 
ATOM      6  CE1 PHE A   1       9.121  -5.869  -7.544  0.00  0.00    -0.000 A 
ATOM      7  CD1 PHE A   1       9.326  -7.159  -6.992  0.00  0.00    -0.004 A 
ENDBRANCH   1   2
BRANCH   1   8
ATOM      8  CA  PHE A   1       9.373  -8.960  -4.154  0.00  0.00    +0.137 C 
BRANCH   8   9
ATOM      9  N   PHE A   1       9.862  -8.321  -2.917  0.00  0.00    -0.239 NA
ATOM     10  H   PHE A   1      10.776  -7.826  -2.934  0.00  0.00    +0.142 HD
ENDBRANCH   8   9
BRANCH   8  11
ATOM     11  C   PHE A   1       9.205 -10.404  -3.995  0.00  0.00    +0.224 C 
ATOM     12  O   PHE A   1       8.185 -10.894  -4.523  0.00  0.00    -0.287 OA
ENDBRANCH   8  11
ENDBRANCH   1   8
TORSDOF 4
REMARK  Name = ../refined-set-2016/3tk2/3tk2_pocket.pdb
REMARK  130 active torsions:
REMARK  status: ('A' for Active; 'I' for Inactive)
REMARK    1  A    between atoms: _1  and  _3
REMARK    2  A    between atoms: _3  and  _4
REMARK    3  A    between atoms: _3  and  _6
REMARK    4  A    between atoms: _6  and  _7
REMARK    5  A    between atoms: _13  and  _15
REMARK    6  A    between atoms: _15  and  _16
REMARK    7  A    between atoms: _15  and  _18
REMARK    8  A    between atoms: _18  and  _19
REMARK    9  A    between atoms: _22  and  _24
REMARK   10  A    between atoms: _24  and  _25
REMARK   11  A    between atoms: _24  and  _27
REMARK   12  A    between atoms: _27  and  _28
REMARK   13  A    between atoms: _33  and  _34
REMARK   14  A    between atoms: _36  and  _38
REMARK   15  A    between atoms: _38  and  _39
REMARK   16  A    between atoms: _38  and  _41
REMARK   17  A    between atoms: _41  and  _42
REMARK   18  A    between atoms: _45  and  _47
REMARK   19  A    between atoms: _47  and  _48
REMARK   20  A    between atoms: _47  and  _50
REMARK   21  A    between atoms: _50  and  _51
REMARK   22  A    between atoms: _51  and  _52
REMARK   23  A    between atoms: _55  and  _57
REMARK   24  A    between atoms: _57  and  _58
REMARK   25  A    between atoms: _61  and  _63
REMARK   26  A    between atoms: _63  and  _64
REMARK   27  A    between atoms: _63  and  _66
REMARK   28  A    between atoms: _66  and  _67
REMARK   29  A    between atoms: _72  and  _73
REMARK   30  A    between atoms: _75  and  _77
REMARK   31  A    between atoms: _77  and  _78
REMARK   32  A    between atoms: _80  and  _82
REMARK   33  A    between atoms: _82  and  _83
REMARK   34  A    between atoms: _82  and  _85
REMARK   35  A    between atoms: _85  and  _86
REMARK   36  A    between atoms: _86  and  _87
REMARK   37  A    between atoms: _87  and  _88
REMARK   38  A    between atoms: _88  and  _89
REMARK   39  A    between atoms: _93  and  _95
REMARK   40  A    between atoms: _95  and  _96
REMARK   41  A    between atoms: _98  and  _100
REMARK   42  A    between atoms: _100  and  _101
REMARK   43  A    between atoms: _103  and  _105
REMARK   44  A    between atoms: _105  and  _106
REMARK   45  A    between atoms: _105  and  _108
REMARK   46  A    between atoms: _111  and  _113
REMARK   47  A    between atoms: _113  and  _114
REMARK   48  A    between atoms: _113  and  _116
REMARK   49  A    between atoms: _116  and  _117
REMARK   50  A    between atoms: _117  and  _118
REMARK   51  A    between atoms: _118  and  _119
REMARK   52  A    between atoms: _119  and  _120
REMARK   53  A    between atoms: _124  and  _126
REMARK   54  A    between atoms: _126  and  _127
REMARK   55  A    between atoms: _130  and  _132
REMARK   56  A    between atoms: _132  and  _133
REMARK   57  A    between atoms: _132  and  _135
REMARK   58  A    between atoms: _135  and  _136
REMARK   59  A    between atoms: _139  and  _141
REMARK   60  A    between atoms: _141  and  _142
REMARK   61  A    between atoms: _141  and  _144
REMARK   62  A    between atoms: _144  and  _145
REMARK   63  A    between atoms: _145  and  _146
REMARK   64  A    between atoms: _148  and  _150
REMARK   65  A    between atoms: _150  and  _151
REMARK   66  A    between atoms: _150  and  _153
REMARK   67  A    between atoms: _153  and  _154
REMARK   68  A    between atoms: _157  and  _159
REMARK   69  A    between atoms: _159  and  _160
REMARK   70  A    between atoms: _159  and  _162
REMARK   71  A    between atoms: _162  and  _163
REMARK   72  A    between atoms: _166  and  _168
REMARK   73  A    between atoms: _168  and  _169
REMARK   74  A    between atoms: _168  and  _171
REMARK   75  A    between atoms: _171  and  _172
REMARK   76  A    between atoms: _177  and  _178
REMARK   77  A    between atoms: _180  and  _182
REMARK   78  A    between atoms: _182  and  _183
REMARK   79  A    between atoms: _182  and  _185
REMARK   80  A    between atoms: _185  and  _186
REMARK   81  A    between atoms: _189  and  _191
REMARK   82  A    between atoms: _191  and  _192
REMARK   83  A    between atoms: _191  and  _194
REMARK   84  A    between atoms: _194  and  _195
REMARK   85  A    between atoms: _198  and  _200
REMARK   86  A    between atoms: _200  and  _201
REMARK   87  A    between atoms: _200  and  _203
REMARK   88  A    between atoms: _203  and  _204
REMARK   89  A    between atoms: _204  and  _205
REMARK   90  A    between atoms: _207  and  _209
REMARK   91  A    between atoms: _209  and  _210
REMARK   92  A    between atoms: _209  and  _212
REMARK   93  A    between atoms: _212  and  _213
REMARK   94  A    between atoms: _216  and  _218
REMARK   95  A    between atoms: _218  and  _219
REMARK   96  A    between atoms: _218  and  _221
REMARK   97  A    between atoms: _221  and  _222
REMARK   98  A    between atoms: _228  and  _230
REMARK   99  A    between atoms: _230  and  _231
REMARK  100  A    between atoms: _230  and  _233
REMARK  101  A    between atoms: _233  and  _234
REMARK  102  A    between atoms: _237  and  _239
REMARK  103  A    between atoms: _239  and  _240
REMARK  104  A    between atoms: _243  and  _245
REMARK  105  A    between atoms: _245  and  _246
REMARK  106  A    between atoms: _245  and  _248
REMARK  107  A    between atoms: _248  and  _249
REMARK  108  A    between atoms: _252  and  _254
REMARK  109  A    between atoms: _254  and  _255
REMARK  110  A    between atoms: _259  and  _260
REMARK  111  A    between atoms: _265  and  _267
REMARK  112  A    between atoms: _267  and  _268
REMARK  113  A    between atoms: _267  and  _270
REMARK  114  A    between atoms: _270  and  _271
REMARK  115  A    between atoms: _274  and  _276
REMARK  116  A    between atoms: _276  and  _277
REMARK  117  A    between atoms: _276  and  _279
REMARK  118  A    between atoms: _279  and  _280
REMARK  119  A    between atoms: _286  and  _288
REMARK  120  A    between atoms: _288  and  _289
REMARK  121  A    between atoms: _293  and  _294
REMARK  122  A    between atoms: _299  and  _301
REMARK  123  A    between atoms: _301  and  _302
REMARK  124  A    between atoms: _301  and  _304
REMARK  125  A    between atoms: _304  and  _305
REMARK  126  A    between atoms: _308  and  _310
REMARK  127  A    between atoms: _310  and  _311
REMARK  128  A    between atoms: _310  and  _313
REMARK  129  A    between atoms: _313  and  _314
REMARK  130  A    between atoms: _319  and  _320
REMARK                            x       y       z     vdW  Elec       q    Type
REMARK                         _______ _______ _______ _____ _____    ______ ____
ROOT
ATOM      1  CA  TYR A   6       4.372  -7.559  -9.631  0.00  0.00    +0.153 C 
ENDROOT
BRANCH   1   2
ATOM      2  C   TYR A   6       5.564  -8.198  -8.886  0.00  0.00    +0.241 C 
ATOM      3  N   GLY A   7       5.301  -8.967  -7.828  0.00  0.00    -0.295 N 
ATOM      4  H   GLY A   7       4.315  -9.085  -7.520  0.00  0.00    +0.150 HD
ATOM      5  O   TYR A   6       6.759  -7.942  -9.231  0.00  0.00    -0.273 OA
BRANCH   3   6
ATOM      6  CA  GLY A   7       6.362  -9.647  -7.091  0.00  0.00    +0.176 C 
BRANCH   6   7
ATOM      7  C   GLY A   7       7.267 -10.460  -8.009  0.00  0.00    +0.243 C 
ATOM      8  O   GLY A   7       8.509 -10.349  -7.963  0.00  0.00    -0.273 OA
ATOM      9  N   LYS A   8       6.670 -11.245  -8.891  0.00  0.00    -0.297 N 
ATOM     10  H   LYS A   8       5.631 -11.252  -8.938  0.00  0.00    +0.150 HD
BRANCH   9  11
ATOM     11  CA  LYS A   8       7.415 -12.090  -9.787  0.00  0.00    +0.149 C 
BRANCH  11  12
ATOM     12  C   LYS A   8       8.281 -11.263 -10.740  0.00  0.00    +0.241 C 
ATOM     13  N   GLY A   9       7.855 -10.043 -11.084  0.00  0.00    -0.295 N 
ATOM     14  H   GLY A   9       6.923  -9.711 -10.764  0.00  0.00    +0.150 HD
ATOM     15  O   LYS A   8       9.313 -11.772 -11.182  0.00  0.00    -0.273 OA
BRANCH  13  16
ATOM     16  CA  GLY A   9       8.703  -9.165 -11.916  0.00  0.00    +0.176 C 
BRANCH  16  17
ATOM     17  C   GLY A   9       9.957  -8.606 -11.254  0.00  0.00    +0.243 C 
ATOM     18  N   GLY A  10      10.130  -8.770  -9.955  0.00  0.00    -0.295 N 
ATOM     19  H   GLY A  10       9.444  -9.316  -9.395  0.00  0.00    +0.150 HD
ATOM     20  O   GLY A   9      10.794  -8.029 -11.954  0.00  0.00    -0.273 OA
BRANCH  18  21
ATOM     21  CA  GLY A  10      11.289  -8.178  -9.323  0.00  0.00    +0.176 C 
BRANCH  21  22
ATOM     22  C   GLY A  10      12.576  -8.775  -9.799  0.00  0.00    +0.243 C 
ATOM     23  O   GLY A  10      13.588  -8.099  -9.793  0.00  0.00    -0.273 OA
ATOM     24  N   VAL A  11      12.580 -10.051 -10.146  0.00  0.00    -0.297 N 
ATOM     25  H   VAL A  11      11.686 -10.583 -10.160  0.00  0.00    +0.150 HD
BRANCH  24  26
ATOM     26  CA  VAL A  11      13.818 -10.719 -10.508  0.00  0.00    +0.149 C 
BRANCH  26  27
ATOM     27  C   VAL A  11      14.391 -10.113 -11.834  0.00  0.00    +0.241 C 
ATOM     28  O   VAL A  11      15.577  -9.684 -11.894  0.00  0.00    -0.273 OA
ATOM     29  N   LYS A  12      13.520  -9.937 -12.834  0.00  0.00    -0.297 N 
ATOM     30  H   LYS A  12      12.530 -10.226 -12.699  0.00  0.00    +0.150 HD
BRANCH  29  31
ATOM     31  CA  LYS A  12      13.922  -9.348 -14.113  0.00  0.00    +0.149 C 
BRANCH  31  32
ATOM     32  C   LYS A  12      14.337  -7.919 -13.861  0.00  0.00    +0.241 C 
ATOM     33  N   ALA A  13      13.571  -7.182 -13.073  0.00  0.00    -0.298 N 
ATOM     34  H   ALA A  13      12.727  -7.593 -12.625  0.00  0.00    +0.150 HD
ATOM     35  O   LYS A  12      15.331  -7.432 -14.441  0.00  0.00    -0.273 OA
BRANCH  33  36
ATOM     36  CA  ALA A  13      13.923  -5.790 -12.840  0.00  0.00    +0.137 C 
ATOM     37  CB  ALA A  13      12.809  -5.090 -12.039  0.00  0.00    +0.030 C 
BRANCH  36  38
ATOM     38  C   ALA A  13      15.289  -5.671 -12.165  0.00  0.00    +0.227 C 
ATOM     39  O   ALA A  13      16.091  -4.831 -12.552  0.00  0.00    -0.286 OA
ENDBRANCH  36  38
ENDBRANCH  33  36
ENDBRANCH  31  32
BRANCH  31  40
ATOM     40  CB  LYS A  12      12.753  -9.428 -15.109  0.00  0.00    +0.029 C 
BRANCH  40  41
ATOM     41  CG  LYS A  12      12.969  -8.697 -16.420  0.00  0.00    +0.000 C 
BRANCH  41  42
ATOM     42  CD  LYS A  12      11.740  -8.708 -17.369  0.00  0.00    -0.024 C 
BRANCH  42  43
ATOM     43  CE  LYS A  12      11.235 -10.111 -17.779  0.00  0.00    -0.086 C 
BRANCH  43  44
ATOM     44  NZ  LYS A  12      10.049  -9.897 -18.715  0.00  0.00    +0.380 N 
ATOM     45  HZ1 LYS A  12       9.306  -9.368 -18.216  0.00  0.00    -0.089 HD
ATOM     46  HZ2 LYS A  12       9.676 -10.820 -19.017  0.00  0.00    -0.089 HD
ATOM     47  HZ3 LYS A  12      10.360  -9.358 -19.548  0.00  0.00    -0.089 HD
ENDBRANCH  43  44
ENDBRANCH  42  43
ENDBRANCH  41  42
ENDBRANCH  40  41
ENDBRANCH  31  40
ENDBRANCH  29  31
ENDBRANCH  26  27
BRANCH  26  48
ATOM     48  CB  VAL A  11      13.513 -12.250 -10.754  0.00  0.00    +0.027 C 
ATOM     49  CG2 VAL A  11      13.280 -12.913  -9.416  0.00  0.00    +0.002 C 
ATOM     50  CG1 VAL A  11      14.605 -12.944 -11.544  0.00  0.00    +0.002 C 
ENDBRANCH  26  48
ENDBRANCH  24  26
ENDBRANCH  21  22
ENDBRANCH  18  21
ENDBRANCH  16  17
ENDBRANCH  13  16
ENDBRANCH  11  12
BRANCH  11  51
ATOM     51  CB  LYS A   8       6.391 -12.955 -10.546  0.00  0.00    +0.029 C 
BRANCH  51  52
ATOM     52  CG  LYS A   8       5.857 -14.049  -9.696  0.00  0.00    +0.000 C 
BRANCH  52  53
ATOM     53  CD  LYS A   8       4.790 -14.858 -10.437  0.00  0.00    -0.024 C 
BRANCH  53  54
ATOM     54  CE  LYS A   8       4.476 -16.022  -9.581  0.00  0.00    -0.086 C 
BRANCH  54  55
ATOM     55  NZ  LYS A   8       3.371 -16.963 -10.053  0.00  0.00    +0.380 N 
ATOM     56  HZ1 LYS A   8       3.254 -17.732  -9.363  0.00  0.00    -0.089 HD
ATOM     57  HZ2 LYS A   8       2.480 -16.434 -10.138  0.00  0.00    -0.089 HD
ATOM     58  HZ3 LYS A   8       3.629 -17.362 -10.978  0.00  0.00    -0.089 HD
ENDBRANCH  54  55
ENDBRANCH  53  54
ENDBRANCH  52  53
ENDBRANCH  51  52
ENDBRANCH  11  51
ENDBRANCH   9  11
ENDBRANCH   6   7
ENDBRANCH   3   6
ENDBRANCH   1   2
BRANCH   1  60
ATOM     59  C   ALA A   5       3.725  -9.686 -10.629  0.00  0.00    +0.241 C 
ATOM     60  N   TYR A   6       3.399  -8.608  -9.922  0.00  0.00    -0.297 N 
ATOM     61  H   TYR A   6       2.426  -8.510  -9.567  0.00  0.00    +0.150 HD
ATOM     62  O   ALA A   5       4.838  -9.798 -11.177  0.00  0.00    -0.273 OA
BRANCH  59  63
ATOM     63  CA  ALA A   5       2.636 -10.717 -10.794  0.00  0.00    +0.149 C 
ATOM     64  CB  ALA A   5       1.658 -10.360 -11.921  0.00  0.00    +0.031 C 
BRANCH  63  67
ATOM     65  C   GLU A   4       2.562 -11.416  -8.467  0.00  0.00    +0.241 C 
ATOM     66  O   GLU A   4       3.763 -11.696  -8.495  0.00  0.00    -0.273 OA
ATOM     67  N   ALA A   5       1.923 -10.947  -9.542  0.00  0.00    -0.297 N 
ATOM     68  H   ALA A   5       0.905 -10.743  -9.486  0.00  0.00    +0.150 HD
BRANCH  65  69
ATOM     69  CA  GLU A   4       1.727 -11.566  -7.210  0.00  0.00    +0.149 C 
BRANCH  69  72
ATOM     70  C   LEU A   3       1.409  -9.239  -6.801  0.00  0.00    +0.241 C 
ATOM     71  O   LEU A   3       2.624  -9.057  -6.698  0.00  0.00    -0.273 OA
ATOM     72  N   GLU A   4       0.869 -10.448  -7.005  0.00  0.00    -0.297 N 
ATOM     73  H   GLU A   4      -0.164 -10.569  -7.014  0.00  0.00    +0.150 HD
BRANCH  70  74
ATOM     74  CA  LEU A   3       0.457  -8.078  -6.643  0.00  0.00    +0.149 C 
BRANCH  74  76
ATOM     75  C   TYR A   2      -0.429  -8.049  -8.900  0.00  0.00    +0.241 C 
ATOM     76  N   LEU A   3      -0.669  -8.154  -7.594  0.00  0.00    -0.297 N 
ATOM     77  H   LEU A   3      -1.640  -8.288  -7.248  0.00  0.00    +0.150 HD
ATOM     78  O   TYR A   2       0.688  -7.936  -9.357  0.00  0.00    -0.273 OA
BRANCH  75  79
ATOM     79  CA  TYR A   2      -1.670  -8.143  -9.830  0.00  0.00    +0.153 C 
BRANCH  79  81
ATOM     80  C   ASP A   1      -2.103 -10.480  -9.423  0.00  0.00    +0.239 C 
ATOM     81  N   TYR A   2      -2.571  -9.213  -9.452  0.00  0.00    -0.297 N 
ATOM     82  H   TYR A   2      -3.561  -9.009  -9.207  0.00  0.00    +0.150 HD
ATOM     83  O   ASP A   1      -0.978 -10.763  -9.784  0.00  0.00    -0.274 OA
BRANCH  80  84
ATOM     84  CA  ASP A   1      -3.014 -11.574  -8.886  0.00  0.00    +0.156 C 
BRANCH  84  85
ATOM     85  N   ASP A   1      -3.848 -11.037  -7.792  0.00  0.00    -0.238 NA
ATOM     86  H   ASP A   1      -4.871 -10.910  -7.933  0.00  0.00    +0.142 HD
ENDBRANCH  84  85
BRANCH  84  87
ATOM     87  CB  ASP A   1      -3.914 -12.053 -10.009  0.00  0.00    +0.140 C 
BRANCH  87  88
ATOM     88  CG  ASP A   1      -4.474 -13.438  -9.768  0.00  0.00    +0.367 C 
ATOM     89  OD2 ASP A   1      -4.037 -14.139  -8.807  0.00  0.00    -0.246 OA
ATOM     90  OD1 ASP A   1      -5.376 -13.809 -10.546  0.00  0.00    -0.246 OA
ENDBRANCH  87  88
ENDBRANCH  84  87
ENDBRANCH  80  84
ENDBRANCH  79  81
BRANCH  79  91
ATOM     91  CB  TYR A   2      -2.413  -6.809  -9.819  0.00  0.00    +0.055 C 
BRANCH  91  92
ATOM     92  CG  TYR A   2      -1.584  -5.568  -9.992  0.00  0.00    -0.020 A 
ATOM     93  CD2 TYR A   2      -1.558  -4.623  -8.971  0.00  0.00    -0.001 A 
ATOM     94  CE2 TYR A   2      -0.751  -3.452  -9.140  0.00  0.00    +0.036 A 
ATOM     95  CZ  TYR A   2      -0.025  -3.284 -10.289  0.00  0.00    +0.134 A 
ATOM     96  CE1 TYR A   2      -0.065  -4.216 -11.269  0.00  0.00    +0.036 A 
ATOM     97  CD1 TYR A   2      -0.821  -5.346 -11.117  0.00  0.00    -0.001 A 
BRANCH  95  98
ATOM     98  OH  TYR A   2       0.721  -2.172 -10.499  0.00  0.00    -0.506 OA
ATOM     99  HH  TYR A   2       0.134  -1.375 -10.483  0.00  0.00    +0.292 HD
ENDBRANCH  95  98
ENDBRANCH  91  92
ENDBRANCH  79  91
ENDBRANCH  75  79
ENDBRANCH  74  76
BRANCH  74 100
ATOM    100  CB  LEU A   3       0.002  -7.990  -5.209  0.00  0.00    +0.029 C 
BRANCH 100 101
ATOM    101  CG  LEU A   3      -0.584  -6.721  -4.736  0.00  0.00    +0.002 C 
ATOM    102  CD2 LEU A   3      -0.913  -6.879  -3.282  0.00  0.00    +0.000 C 
ATOM    103  CD1 LEU A   3       0.396  -5.598  -4.923  0.00  0.00    +0.000 C 
ENDBRANCH 100 101
ENDBRANCH  74 100
ENDBRANCH  70  74
ENDBRANCH  69  72
BRANCH  69 104
ATOM    104  CB  GLU A   4       0.877 -12.875  -7.281  0.00  0.00    +0.041 C 
BRANCH 104 105
ATOM    105  CG  GLU A   4       1.692 -14.111  -7.536  0.00  0.00    +0.116 C 
BRANCH 105 106
ATOM    106  CD  GLU A   4       0.866 -15.370  -7.671  0.00  0.00    +0.365 C 
ATOM    107  OE2 GLU A   4      -0.337 -15.391  -7.465  0.00  0.00    -0.246 OA
ATOM    108  OE1 GLU A   4       1.497 -16.376  -8.016  0.00  0.00    -0.246 OA
ENDBRANCH 105 106
ENDBRANCH 104 105
ENDBRANCH  69 104
ENDBRANCH  65  69
ENDBRANCH  63  67
ENDBRANCH  59  63
ENDBRANCH   1  60
BRANCH   1 109
ATOM    109  CB  TYR A   6       3.673  -6.474  -8.763  0.00  0.00    +0.055 C 
BRANCH 109 110
ATOM    110  CG  TYR A   6       4.634  -5.405  -8.313  0.00  0.00    -0.020 A 
ATOM    111  CD2 TYR A   6       5.311  -5.526  -7.127  0.00  0.00    -0.001 A 
ATOM    112  CE2 TYR A   6       6.246  -4.554  -6.718  0.00  0.00    +0.036 A 
ATOM    113  CZ  TYR A   6       6.475  -3.439  -7.538  0.00  0.00    +0.134 A 
ATOM    114  CE1 TYR A   6       5.829  -3.334  -8.727  0.00  0.00    +0.036 A 
ATOM    115  CD1 TYR A   6       4.918  -4.280  -9.105  0.00  0.00    -0.001 A 
BRANCH 113 116
ATOM    116  OH  TYR A   6       7.376  -2.485  -7.204  0.00  0.00    -0.506 OA
ATOM    117  HH  TYR A   6       7.391  -1.787  -7.906  0.00  0.00    +0.292 HD
ENDBRANCH 113 116
ENDBRANCH 109 110
ENDBRANCH   1 109
TORSDOF 50
REMARK  Name = ../refined-set-2016/3tk2/3tk2_pocket.pdb
REMARK  130 active torsions:
REMARK  status: ('A' for Active; 'I' for Inactive)
REMARK    1  A    between atoms: _1  and  _3
REMARK    2  A    between atoms: _3  and  _4
REMARK    3  A    between atoms: _3  and  _6
REMARK    4  A    between atoms: _6  and  _7
REMARK    5  A    between atoms: _13  and  _15
REMARK    6  A    between atoms: _15  and  _16
REMARK    7  A    between atoms: _15  and  _18
REMARK    8  A    between atoms: _18  and  _19
REMARK    9  A    between atoms: _22  and  _24
REMARK   10  A    between atoms: _24  and  _25
REMARK   11  A    between atoms: _24  and  _27
REMARK   12  A    between atoms: _27  and  _28
REMARK   13  A    between atoms: _33  and  _34
REMARK   14  A    between atoms: _36  and  _38
REMARK   15  A    between atoms: _38  and  _39
REMARK   16  A    between atoms: _38  and  _41
REMARK   17  A    between atoms: _41  and  _42
REMARK   18  A    between atoms: _45  and  _47
REMARK   19  A    between atoms: _47  and  _48
REMARK   20  A    between atoms: _47  and  _50
REMARK   21  A    between atoms: _50  and  _51
REMARK   22  A    between atoms: _51  and  _52
REMARK   23  A    between atoms: _55  and  _57
REMARK   24  A    between atoms: _57  and  _58
REMARK   25  A    between atoms: _61  and  _63
REMARK   26  A    between atoms: _63  and  _64
REMARK   27  A    between atoms: _63  and  _66
REMARK   28  A    between atoms: _66  and  _67
REMARK   29  A    between atoms: _72  and  _73
REMARK   30  A    between atoms: _75  and  _77
REMARK   31  A    between atoms: _77  and  _78
REMARK   32  A    between atoms: _80  and  _82
REMARK   33  A    between atoms: _82  and  _83
REMARK   34  A    between atoms: _82  and  _85
REMARK   35  A    between atoms: _85  and  _86
REMARK   36  A    between atoms: _86  and  _87
REMARK   37  A    between atoms: _87  and  _88
REMARK   38  A    between atoms: _88  and  _89
REMARK   39  A    between atoms: _93  and  _95
REMARK   40  A    between atoms: _95  and  _96
REMARK   41  A    between atoms: _98  and  _100
REMARK   42  A    between atoms: _100  and  _101
REMARK   43  A    between atoms: _103  and  _105
REMARK   44  A    between atoms: _105  and  _106
REMARK   45  A    between atoms: _105  and  _108
REMARK   46  A    between atoms: _111  and  _113
REMARK   47  A    between atoms: _113  and  _114
REMARK   48  A    between atoms: _113  and  _116
REMARK   49  A    between atoms: _116  and  _117
REMARK   50  A    between atoms: _117  and  _118
REMARK   51  A    between atoms: _118  and  _119
REMARK   52  A    between atoms: _119  and  _120
REMARK   53  A    between atoms: _124  and  _126
REMARK   54  A    between atoms: _126  and  _127
REMARK   55  A    between atoms: _130  and  _132
REMARK   56  A    between atoms: _132  and  _133
REMARK   57  A    between atoms: _132  and  _135
REMARK   58  A    between atoms: _135  and  _136
REMARK   59  A    between atoms: _139  and  _141
REMARK   60  A    between atoms: _141  and  _142
REMARK   61  A    between atoms: _141  and  _144
REMARK   62  A    between atoms: _144  and  _145
REMARK   63  A    between atoms: _145  and  _146
REMARK   64  A    between atoms: _148  and  _150
REMARK   65  A    between atoms: _150  and  _151
REMARK   66  A    between atoms: _150  and  _153
REMARK   67  A    between atoms: _153  and  _154
REMARK   68  A    between atoms: _157  and  _159
REMARK   69  A    between atoms: _159  and  _160
REMARK   70  A    between atoms: _159  and  _162
REMARK   71  A    between atoms: _162  and  _163
REMARK   72  A    between atoms: _166  and  _168
REMARK   73  A    between atoms: _168  and  _169
REMARK   74  A    between atoms: _168  and  _171
REMARK   75  A    between atoms: _171  and  _172
REMARK   76  A    between atoms: _177  and  _178
REMARK   77  A    between atoms: _180  and  _182
REMARK   78  A    between atoms: _182  and  _183
REMARK   79  A    between atoms: _182  and  _185
REMARK   80  A    between atoms: _185  and  _186
REMARK   81  A    between atoms: _189  and  _191
REMARK   82  A    between atoms: _191  and  _192
REMARK   83  A    between atoms: _191  and  _194
REMARK   84  A    between atoms: _194  and  _195
REMARK   85  A    between atoms: _198  and  _200
REMARK   86  A    between atoms: _200  and  _201
REMARK   87  A    between atoms: _200  and  _203
REMARK   88  A    between atoms: _203  and  _204
REMARK   89  A    between atoms: _204  and  _205
REMARK   90  A    between atoms: _207  and  _209
REMARK   91  A    between atoms: _209  and  _210
REMARK   92  A    between atoms: _209  and  _212
REMARK   93  A    between atoms: _212  and  _213
REMARK   94  A    between atoms: _216  and  _218
REMARK   95  A    between atoms: _218  and  _219
REMARK   96  A    between atoms: _218  and  _221
REMARK   97  A    between atoms: _221  and  _222
REMARK   98  A    between atoms: _228  and  _230
REMARK   99  A    between atoms: _230  and  _231
REMARK  100  A    between atoms: _230  and  _233
REMARK  101  A    between atoms: _233  and  _234
REMARK  102  A    between atoms: _237  and  _239
REMARK  103  A    between atoms: _239  and  _240
REMARK  104  A    between atoms: _243  and  _245
REMARK  105  A    between atoms: _245  and  _246
REMARK  106  A    between atoms: _245  and  _248
REMARK  107  A    between atoms: _248  and  _249
REMARK  108  A    between atoms: _252  and  _254
REMARK  109  A    between atoms: _254  and  _255
REMARK  110  A    between atoms: _259  and  _260
REMARK  111  A    between atoms: _265  and  _267
REMARK  112  A    between atoms: _267  and  _268
REMARK  113  A    between atoms: _267  and  _270
REMARK  114  A    between atoms: _270  and  _271
REMARK  115  A    between atoms: _274  and  _276
REMARK  116  A    between atoms: _276  and  _277
REMARK  117  A    between atoms: _276  and  _279
REMARK  118  A    between atoms: _279  and  _280
REMARK  119  A    between atoms: _286  and  _288
REMARK  120  A    between atoms: _288  and  _289
REMARK  121  A    between atoms: _293  and  _294
REMARK  122  A    between atoms: _299  and  _301
REMARK  123  A    between atoms: _301  and  _302
REMARK  124  A    between atoms: _301  and  _304
REMARK  125  A    between atoms: _304  and  _305
REMARK  126  A    between atoms: _308  and  _310
REMARK  127  A    between atoms: _310  and  _311
REMARK  128  A    between atoms: _310  and  _313
REMARK  129  A    between atoms: _313  and  _314
REMARK  130  A    between atoms: _319  and  _320
REMARK                            x       y       z     vdW  Elec       q    Type
REMARK                         _______ _______ _______ _____ _____    ______ ____
ROOT
ATOM      1  CA  LEU A   1      18.431  -5.017 -15.435  0.00  0.00    +0.133 C 
ENDROOT
BRANCH   1   2
ATOM      2  N   LEU A   1      18.222  -6.070 -14.456  0.00  0.00    -0.239 NA
ATOM      3  H   LEU A   1      17.320  -6.097 -13.939  0.00  0.00    +0.142 HD
ENDBRANCH   1   2
BRANCH   1   4
ATOM      4  C   LEU A   1      18.623  -3.639 -14.817  0.00  0.00    +0.224 C 
ATOM      5  O   LEU A   1      18.621  -2.645 -15.571  0.00  0.00    -0.287 OA
ENDBRANCH   1   4
BRANCH   1   6
ATOM      6  CB  LEU A   1      17.181  -5.004 -16.369  0.00  0.00    +0.025 C 
BRANCH   6   7
ATOM      7  CG  LEU A   1      16.996  -6.307 -17.185  0.00  0.00    +0.002 C 
ATOM      8  CD2 LEU A   1      15.736  -6.334 -17.971  0.00  0.00    +0.000 C 
ATOM      9  CD1 LEU A   1      18.200  -6.440 -18.149  0.00  0.00    +0.000 C 
ENDBRANCH   6   7
ENDBRANCH   1   6
TORSDOF 4
REMARK  Name = ../refined-set-2016/3tk2/3tk2_pocket.pdb
REMARK  130 active torsions:
REMARK  status: ('A' for Active; 'I' for Inactive)
REMARK    1  A    between atoms: _1  and  _3
REMARK    2  A    between atoms: _3  and  _4
REMARK    3  A    between atoms: _3  and  _6
REMARK    4  A    between atoms: _6  and  _7
REMARK    5  A    between atoms: _13  and  _15
REMARK    6  A    between atoms: _15  and  _16
REMARK    7  A    between atoms: _15  and  _18
REMARK    8  A    between atoms: _18  and  _19
REMARK    9  A    between atoms: _22  and  _24
REMARK   10  A    between atoms: _24  and  _25
REMARK   11  A    between atoms: _24  and  _27
REMARK   12  A    between atoms: _27  and  _28
REMARK   13  A    between atoms: _33  and  _34
REMARK   14  A    between atoms: _36  and  _38
REMARK   15  A    between atoms: _38  and  _39
REMARK   16  A    between atoms: _38  and  _41
REMARK   17  A    between atoms: _41  and  _42
REMARK   18  A    between atoms: _45  and  _47
REMARK   19  A    between atoms: _47  and  _48
REMARK   20  A    between atoms: _47  and  _50
REMARK   21  A    between atoms: _50  and  _51
REMARK   22  A    between atoms: _51  and  _52
REMARK   23  A    between atoms: _55  and  _57
REMARK   24  A    between atoms: _57  and  _58
REMARK   25  A    between atoms: _61  and  _63
REMARK   26  A    between atoms: _63  and  _64
REMARK   27  A    between atoms: _63  and  _66
REMARK   28  A    between atoms: _66  and  _67
REMARK   29  A    between atoms: _72  and  _73
REMARK   30  A    between atoms: _75  and  _77
REMARK   31  A    between atoms: _77  and  _78
REMARK   32  A    between atoms: _80  and  _82
REMARK   33  A    between atoms: _82  and  _83
REMARK   34  A    between atoms: _82  and  _85
REMARK   35  A    between atoms: _85  and  _86
REMARK   36  A    between atoms: _86  and  _87
REMARK   37  A    between atoms: _87  and  _88
REMARK   38  A    between atoms: _88  and  _89
REMARK   39  A    between atoms: _93  and  _95
REMARK   40  A    between atoms: _95  and  _96
REMARK   41  A    between atoms: _98  and  _100
REMARK   42  A    between atoms: _100  and  _101
REMARK   43  A    between atoms: _103  and  _105
REMARK   44  A    between atoms: _105  and  _106
REMARK   45  A    between atoms: _105  and  _108
REMARK   46  A    between atoms: _111  and  _113
REMARK   47  A    between atoms: _113  and  _114
REMARK   48  A    between atoms: _113  and  _116
REMARK   49  A    between atoms: _116  and  _117
REMARK   50  A    between atoms: _117  and  _118
REMARK   51  A    between atoms: _118  and  _119
REMARK   52  A    between atoms: _119  and  _120
REMARK   53  A    between atoms: _124  and  _126
REMARK   54  A    between atoms: _126  and  _127
REMARK   55  A    between atoms: _130  and  _132
REMARK   56  A    between atoms: _132  and  _133
REMARK   57  A    between atoms: _132  and  _135
REMARK   58  A    between atoms: _135  and  _136
REMARK   59  A    between atoms: _139  and  _141
REMARK   60  A    between atoms: _141  and  _142
REMARK   61  A    between atoms: _141  and  _144
REMARK   62  A    between atoms: _144  and  _145
REMARK   63  A    between atoms: _145  and  _146
REMARK   64  A    between atoms: _148  and  _150
REMARK   65  A    between atoms: _150  and  _151
REMARK   66  A    between atoms: _150  and  _153
REMARK   67  A    between atoms: _153  and  _154
REMARK   68  A    between atoms: _157  and  _159
REMARK   69  A    between atoms: _159  and  _160
REMARK   70  A    between atoms: _159  and  _162
REMARK   71  A    between atoms: _162  and  _163
REMARK   72  A    between atoms: _166  and  _168
REMARK   73  A    between atoms: _168  and  _169
REMARK   74  A    between atoms: _168  and  _171
REMARK   75  A    between atoms: _171  and  _172
REMARK   76  A    between atoms: _177  and  _178
REMARK   77  A    between atoms: _180  and  _182
REMARK   78  A    between atoms: _182  and  _183
REMARK   79  A    between atoms: _182  and  _185
REMARK   80  A    between atoms: _185  and  _186
REMARK   81  A    between atoms: _189  and  _191
REMARK   82  A    between atoms: _191  and  _192
REMARK   83  A    between atoms: _191  and  _194
REMARK   84  A    between atoms: _194  and  _195
REMARK   85  A    between atoms: _198  and  _200
REMARK   86  A    between atoms: _200  and  _201
REMARK   87  A    between atoms: _200  and  _203
REMARK   88  A    between atoms: _203  and  _204
REMARK   89  A    between atoms: _204  and  _205
REMARK   90  A    between atoms: _207  and  _209
REMARK   91  A    between atoms: _209  and  _210
REMARK   92  A    between atoms: _209  and  _212
REMARK   93  A    between atoms: _212  and  _213
REMARK   94  A    between atoms: _216  and  _218
REMARK   95  A    between atoms: _218  and  _219
REMARK   96  A    between atoms: _218  and  _221
REMARK   97  A    between atoms: _221  and  _222
REMARK   98  A    between atoms: _228  and  _230
REMARK   99  A    between atoms: _230  and  _231
REMARK  100  A    between atoms: _230  and  _233
REMARK  101  A    between atoms: _233  and  _234
REMARK  102  A    between atoms: _237  and  _239
REMARK  103  A    between atoms: _239  and  _240
REMARK  104  A    between atoms: _243  and  _245
REMARK  105  A    between atoms: _245  and  _246
REMARK  106  A    between atoms: _245  and  _248
REMARK  107  A    between atoms: _248  and  _249
REMARK  108  A    between atoms: _252  and  _254
REMARK  109  A    between atoms: _254  and  _255
REMARK  110  A    between atoms: _259  and  _260
REMARK  111  A    between atoms: _265  and  _267
REMARK  112  A    between atoms: _267  and  _268
REMARK  113  A    between atoms: _267  and  _270
REMARK  114  A    between atoms: _270  and  _271
REMARK  115  A    between atoms: _274  and  _276
REMARK  116  A    between atoms: _276  and  _277
REMARK  117  A    between atoms: _276  and  _279
REMARK  118  A    between atoms: _279  and  _280
REMARK  119  A    between atoms: _286  and  _288
REMARK  120  A    between atoms: _288  and  _289
REMARK  121  A    between atoms: _293  and  _294
REMARK  122  A    between atoms: _299  and  _301
REMARK  123  A    between atoms: _301  and  _302
REMARK  124  A    between atoms: _301  and  _304
REMARK  125  A    between atoms: _304  and  _305
REMARK  126  A    between atoms: _308  and  _310
REMARK  127  A    between atoms: _310  and  _311
REMARK  128  A    between atoms: _310  and  _313
REMARK  129  A    between atoms: _313  and  _314
REMARK  130  A    between atoms: _319  and  _320
REMARK                            x       y       z     vdW  Elec       q    Type
REMARK                         _______ _______ _______ _____ _____    ______ ____
ROOT
ATOM      1  C   MET A   1       9.834   0.946 -12.064  0.00  0.00    +0.238 C 
ATOM      2  N   LEU A   2      10.030  -0.285 -11.531  0.00  0.00    -0.298 N 
ATOM      3  H   LEU A   2      10.968  -0.731 -11.583  0.00  0.00    +0.150 HD
ATOM      4  O   MET A   1       8.676   1.464 -12.043  0.00  0.00    -0.274 OA
ENDROOT
BRANCH   1   5
ATOM      5  CA  MET A   1      11.048   1.754 -12.599  0.00  0.00    +0.146 C 
BRANCH   5   6
ATOM      6  N   MET A   1      12.088   1.599 -11.630  0.00  0.00    -0.238 NA
ATOM      7  H   MET A   1      12.914   1.012 -11.863  0.00  0.00    +0.142 HD
ENDBRANCH   5   6
BRANCH   5   8
ATOM      8  CB  MET A   1      11.648   1.446 -14.022  0.00  0.00    +0.038 C 
BRANCH   8   9
ATOM      9  CG  MET A   1      13.439   2.214 -14.300  0.00  0.00    +0.060 C 
BRANCH   9  10
ATOM     10  SD  MET A   1      13.465   1.613 -15.943  0.00  0.00    -0.139 S 
ATOM     11  CE  MET A   1      14.557   2.925 -16.251  0.00  0.00    +0.069 C 
ENDBRANCH   9  10
ENDBRANCH   8   9
ENDBRANCH   5   8
ENDBRANCH   1   5
BRANCH   2  12
ATOM     12  CA  LEU A   2       8.898  -1.001 -10.869  0.00  0.00    +0.137 C 
BRANCH  12  13
ATOM     13  C   LEU A   2       8.424  -0.273  -9.667  0.00  0.00    +0.227 C 
ATOM     14  O   LEU A   2       7.222  -0.269  -9.416  0.00  0.00    -0.286 OA
ENDBRANCH  12  13
BRANCH  12  15
ATOM     15  CB  LEU A   2       9.165  -2.449 -10.500  0.00  0.00    +0.028 C 
BRANCH  15  16
ATOM     16  CG  LEU A   2       9.240  -3.446 -11.601  0.00  0.00    +0.002 C 
ATOM     17  CD2 LEU A   2       9.472  -4.787 -10.988  0.00  0.00    +0.000 C 
ATOM     18  CD1 LEU A   2       7.858  -3.384 -12.240  0.00  0.00    +0.000 C 
ENDBRANCH  15  16
ENDBRANCH  12  15
ENDBRANCH   2  12
TORSDOF 9
REMARK  Name = ../refined-set-2016/3tk2/3tk2_pocket.pdb
REMARK  130 active torsions:
REMARK  status: ('A' for Active; 'I' for Inactive)
REMARK    1  A    between atoms: _1  and  _3
REMARK    2  A    between atoms: _3  and  _4
REMARK    3  A    between atoms: _3  and  _6
REMARK    4  A    between atoms: _6  and  _7
REMARK    5  A    between atoms: _13  and  _15
REMARK    6  A    between atoms: _15  and  _16
REMARK    7  A    between atoms: _15  and  _18
REMARK    8  A    between atoms: _18  and  _19
REMARK    9  A    between atoms: _22  and  _24
REMARK   10  A    between atoms: _24  and  _25
REMARK   11  A    between atoms: _24  and  _27
REMARK   12  A    between atoms: _27  and  _28
REMARK   13  A    between atoms: _33  and  _34
REMARK   14  A    between atoms: _36  and  _38
REMARK   15  A    between atoms: _38  and  _39
REMARK   16  A    between atoms: _38  and  _41
REMARK   17  A    between atoms: _41  and  _42
REMARK   18  A    between atoms: _45  and  _47
REMARK   19  A    between atoms: _47  and  _48
REMARK   20  A    between atoms: _47  and  _50
REMARK   21  A    between atoms: _50  and  _51
REMARK   22  A    between atoms: _51  and  _52
REMARK   23  A    between atoms: _55  and  _57
REMARK   24  A    between atoms: _57  and  _58
REMARK   25  A    between atoms: _61  and  _63
REMARK   26  A    between atoms: _63  and  _64
REMARK   27  A    between atoms: _63  and  _66
REMARK   28  A    between atoms: _66  and  _67
REMARK   29  A    between atoms: _72  and  _73
REMARK   30  A    between atoms: _75  and  _77
REMARK   31  A    between atoms: _77  and  _78
REMARK   32  A    between atoms: _80  and  _82
REMARK   33  A    between atoms: _82  and  _83
REMARK   34  A    between atoms: _82  and  _85
REMARK   35  A    between atoms: _85  and  _86
REMARK   36  A    between atoms: _86  and  _87
REMARK   37  A    between atoms: _87  and  _88
REMARK   38  A    between atoms: _88  and  _89
REMARK   39  A    between atoms: _93  and  _95
REMARK   40  A    between atoms: _95  and  _96
REMARK   41  A    between atoms: _98  and  _100
REMARK   42  A    between atoms: _100  and  _101
REMARK   43  A    between atoms: _103  and  _105
REMARK   44  A    between atoms: _105  and  _106
REMARK   45  A    between atoms: _105  and  _108
REMARK   46  A    between atoms: _111  and  _113
REMARK   47  A    between atoms: _113  and  _114
REMARK   48  A    between atoms: _113  and  _116
REMARK   49  A    between atoms: _116  and  _117
REMARK   50  A    between atoms: _117  and  _118
REMARK   51  A    between atoms: _118  and  _119
REMARK   52  A    between atoms: _119  and  _120
REMARK   53  A    between atoms: _124  and  _126
REMARK   54  A    between atoms: _126  and  _127
REMARK   55  A    between atoms: _130  and  _132
REMARK   56  A    between atoms: _132  and  _133
REMARK   57  A    between atoms: _132  and  _135
REMARK   58  A    between atoms: _135  and  _136
REMARK   59  A    between atoms: _139  and  _141
REMARK   60  A    between atoms: _141  and  _142
REMARK   61  A    between atoms: _141  and  _144
REMARK   62  A    between atoms: _144  and  _145
REMARK   63  A    between atoms: _145  and  _146
REMARK   64  A    between atoms: _148  and  _150
REMARK   65  A    between atoms: _150  and  _151
REMARK   66  A    between atoms: _150  and  _153
REMARK   67  A    between atoms: _153  and  _154
REMARK   68  A    between atoms: _157  and  _159
REMARK   69  A    between atoms: _159  and  _160
REMARK   70  A    between atoms: _159  and  _162
REMARK   71  A    between atoms: _162  and  _163
REMARK   72  A    between atoms: _166  and  _168
REMARK   73  A    between atoms: _168  and  _169
REMARK   74  A    between atoms: _168  and  _171
REMARK   75  A    between atoms: _171  and  _172
REMARK   76  A    between atoms: _177  and  _178
REMARK   77  A    between atoms: _180  and  _182
REMARK   78  A    between atoms: _182  and  _183
REMARK   79  A    between atoms: _182  and  _185
REMARK   80  A    between atoms: _185  and  _186
REMARK   81  A    between atoms: _189  and  _191
REMARK   82  A    between atoms: _191  and  _192
REMARK   83  A    between atoms: _191  and  _194
REMARK   84  A    between atoms: _194  and  _195
REMARK   85  A    between atoms: _198  and  _200
REMARK   86  A    between atoms: _200  and  _201
REMARK   87  A    between atoms: _200  and  _203
REMARK   88  A    between atoms: _203  and  _204
REMARK   89  A    between atoms: _204  and  _205
REMARK   90  A    between atoms: _207  and  _209
REMARK   91  A    between atoms: _209  and  _210
REMARK   92  A    between atoms: _209  and  _212
REMARK   93  A    between atoms: _212  and  _213
REMARK   94  A    between atoms: _216  and  _218
REMARK   95  A    between atoms: _218  and  _219
REMARK   96  A    between atoms: _218  and  _221
REMARK   97  A    between atoms: _221  and  _222
REMARK   98  A    between atoms: _228  and  _230
REMARK   99  A    between atoms: _230  and  _231
REMARK  100  A    between atoms: _230  and  _233
REMARK  101  A    between atoms: _233  and  _234
REMARK  102  A    between atoms: _237  and  _239
REMARK  103  A    between atoms: _239  and  _240
REMARK  104  A    between atoms: _243  and  _245
REMARK  105  A    between atoms: _245  and  _246
REMARK  106  A    between atoms: _245  and  _248
REMARK  107  A    between atoms: _248  and  _249
REMARK  108  A    between atoms: _252  and  _254
REMARK  109  A    between atoms: _254  and  _255
REMARK  110  A    between atoms: _259  and  _260
REMARK  111  A    between atoms: _265  and  _267
REMARK  112  A    between atoms: _267  and  _268
REMARK  113  A    between atoms: _267  and  _270
REMARK  114  A    between atoms: _270  and  _271
REMARK  115  A    between atoms: _274  and  _276
REMARK  116  A    between atoms: _276  and  _277
REMARK  117  A    between atoms: _276  and  _279
REMARK  118  A    between atoms: _279  and  _280
REMARK  119  A    between atoms: _286  and  _288
REMARK  120  A    between atoms: _288  and  _289
REMARK  121  A    between atoms: _293  and  _294
REMARK  122  A    between atoms: _299  and  _301
REMARK  123  A    between atoms: _301  and  _302
REMARK  124  A    between atoms: _301  and  _304
REMARK  125  A    between atoms: _304  and  _305
REMARK  126  A    between atoms: _308  and  _310
REMARK  127  A    between atoms: _310  and  _311
REMARK  128  A    between atoms: _310  and  _313
REMARK  129  A    between atoms: _313  and  _314
REMARK  130  A    between atoms: _319  and  _320
REMARK                            x       y       z     vdW  Elec       q    Type
REMARK                         _______ _______ _______ _____ _____    ______ ____
ROOT
ATOM      1  CA  TYR A   2       3.929   0.269  -7.350  0.00  0.00    +0.141 C 
ENDROOT
BRANCH   1   3
ATOM      2  C   LEU A   1       3.811   1.157  -9.593  0.00  0.00    +0.238 C 
ATOM      3  N   TYR A   2       4.538   0.614  -8.614  0.00  0.00    -0.298 N 
ATOM      4  H   TYR A   2       5.552   0.438  -8.762  0.00  0.00    +0.150 HD
ATOM      5  O   LEU A   1       2.619   1.439  -9.439  0.00  0.00    -0.274 OA
BRANCH   2   6
ATOM      6  CA  LEU A   1       4.550   1.535 -10.881  0.00  0.00    +0.145 C 
BRANCH   6   7
ATOM      7  N   LEU A   1       5.854   2.171 -10.599  0.00  0.00    -0.238 NA
ATOM      8  H   LEU A   1       6.739   1.741 -10.935  0.00  0.00    +0.142 HD
ENDBRANCH   6   7
BRANCH   6   9
ATOM      9  CB  LEU A   1       4.809   0.275 -11.712  0.00  0.00    +0.026 C 
BRANCH   9  10
ATOM     10  CG  LEU A   1       3.534  -0.496 -12.039  0.00  0.00    +0.002 C 
ATOM     11  CD2 LEU A   1       3.909  -1.814 -12.790  0.00  0.00    +0.000 C 
ATOM     12  CD1 LEU A   1       2.450   0.303 -12.830  0.00  0.00    +0.000 C 
ENDBRANCH   9  10
ENDBRANCH   6   9
ENDBRANCH   2   6
ENDBRANCH   1   3
BRANCH   1  13
ATOM     13  C   TYR A   2       3.406   1.519  -6.649  0.00  0.00    +0.227 C 
ATOM     14  O   TYR A   2       2.246   1.543  -6.124  0.00  0.00    -0.286 OA
ENDBRANCH   1  13
BRANCH   1  15
ATOM     15  CB  TYR A   2       4.985  -0.465  -6.477  0.00  0.00    +0.054 C 
BRANCH  15  16
ATOM     16  CG  TYR A   2       4.422  -1.049  -5.179  0.00  0.00    -0.020 A 
ATOM     17  CD2 TYR A   2       4.408  -0.383  -3.975  0.00  0.00    -0.001 A 
ATOM     18  CE2 TYR A   2       3.967  -1.035  -2.803  0.00  0.00    +0.036 A 
ATOM     19  CZ  TYR A   2       3.462  -2.290  -2.893  0.00  0.00    +0.134 A 
ATOM     20  CE1 TYR A   2       3.449  -2.992  -4.065  0.00  0.00    +0.036 A 
ATOM     21  CD1 TYR A   2       3.921  -2.340  -5.211  0.00  0.00    -0.001 A 
BRANCH  19  22
ATOM     22  OH  TYR A   2       2.964  -2.927  -1.776  0.00  0.00    -0.506 OA
ATOM     23  HH  TYR A   2       3.681  -3.010  -1.098  0.00  0.00    +0.292 HD
ENDBRANCH  19  22
ENDBRANCH  15  16
ENDBRANCH   1  15
TORSDOF 9
REMARK  Name = ../refined-set-2016/3tk2/3tk2_pocket.pdb
REMARK  130 active torsions:
REMARK  status: ('A' for Active; 'I' for Inactive)
REMARK    1  A    between atoms: _1  and  _3
REMARK    2  A    between atoms: _3  and  _4
REMARK    3  A    between atoms: _3  and  _6
REMARK    4  A    between atoms: _6  and  _7
REMARK    5  A    between atoms: _13  and  _15
REMARK    6  A    between atoms: _15  and  _16
REMARK    7  A    between atoms: _15  and  _18
REMARK    8  A    between atoms: _18  and  _19
REMARK    9  A    between atoms: _22  and  _24
REMARK   10  A    between atoms: _24  and  _25
REMARK   11  A    between atoms: _24  and  _27
REMARK   12  A    between atoms: _27  and  _28
REMARK   13  A    between atoms: _33  and  _34
REMARK   14  A    between atoms: _36  and  _38
REMARK   15  A    between atoms: _38  and  _39
REMARK   16  A    between atoms: _38  and  _41
REMARK   17  A    between atoms: _41  and  _42
REMARK   18  A    between atoms: _45  and  _47
REMARK   19  A    between atoms: _47  and  _48
REMARK   20  A    between atoms: _47  and  _50
REMARK   21  A    between atoms: _50  and  _51
REMARK   22  A    between atoms: _51  and  _52
REMARK   23  A    between atoms: _55  and  _57
REMARK   24  A    between atoms: _57  and  _58
REMARK   25  A    between atoms: _61  and  _63
REMARK   26  A    between atoms: _63  and  _64
REMARK   27  A    between atoms: _63  and  _66
REMARK   28  A    between atoms: _66  and  _67
REMARK   29  A    between atoms: _72  and  _73
REMARK   30  A    between atoms: _75  and  _77
REMARK   31  A    between atoms: _77  and  _78
REMARK   32  A    between atoms: _80  and  _82
REMARK   33  A    between atoms: _82  and  _83
REMARK   34  A    between atoms: _82  and  _85
REMARK   35  A    between atoms: _85  and  _86
REMARK   36  A    between atoms: _86  and  _87
REMARK   37  A    between atoms: _87  and  _88
REMARK   38  A    between atoms: _88  and  _89
REMARK   39  A    between atoms: _93  and  _95
REMARK   40  A    between atoms: _95  and  _96
REMARK   41  A    between atoms: _98  and  _100
REMARK   42  A    between atoms: _100  and  _101
REMARK   43  A    between atoms: _103  and  _105
REMARK   44  A    between atoms: _105  and  _106
REMARK   45  A    between atoms: _105  and  _108
REMARK   46  A    between atoms: _111  and  _113
REMARK   47  A    between atoms: _113  and  _114
REMARK   48  A    between atoms: _113  and  _116
REMARK   49  A    between atoms: _116  and  _117
REMARK   50  A    between atoms: _117  and  _118
REMARK   51  A    between atoms: _118  and  _119
REMARK   52  A    between atoms: _119  and  _120
REMARK   53  A    between atoms: _124  and  _126
REMARK   54  A    between atoms: _126  and  _127
REMARK   55  A    between atoms: _130  and  _132
REMARK   56  A    between atoms: _132  and  _133
REMARK   57  A    between atoms: _132  and  _135
REMARK   58  A    between atoms: _135  and  _136
REMARK   59  A    between atoms: _139  and  _141
REMARK   60  A    between atoms: _141  and  _142
REMARK   61  A    between atoms: _141  and  _144
REMARK   62  A    between atoms: _144  and  _145
REMARK   63  A    between atoms: _145  and  _146
REMARK   64  A    between atoms: _148  and  _150
REMARK   65  A    between atoms: _150  and  _151
REMARK   66  A    between atoms: _150  and  _153
REMARK   67  A    between atoms: _153  and  _154
REMARK   68  A    between atoms: _157  and  _159
REMARK   69  A    between atoms: _159  and  _160
REMARK   70  A    between atoms: _159  and  _162
REMARK   71  A    between atoms: _162  and  _163
REMARK   72  A    between atoms: _166  and  _168
REMARK   73  A    between atoms: _168  and  _169
REMARK   74  A    between atoms: _168  and  _171
REMARK   75  A    between atoms: _171  and  _172
REMARK   76  A    between atoms: _177  and  _178
REMARK   77  A    between atoms: _180  and  _182
REMARK   78  A    between atoms: _182  and  _183
REMARK   79  A    between atoms: _182  and  _185
REMARK   80  A    between atoms: _185  and  _186
REMARK   81  A    between atoms: _189  and  _191
REMARK   82  A    between atoms: _191  and  _192
REMARK   83  A    between atoms: _191  and  _194
REMARK   84  A    between atoms: _194  and  _195
REMARK   85  A    between atoms: _198  and  _200
REMARK   86  A    between atoms: _200  and  _201
REMARK   87  A    between atoms: _200  and  _203
REMARK   88  A    between atoms: _203  and  _204
REMARK   89  A    between atoms: _204  and  _205
REMARK   90  A    between atoms: _207  and  _209
REMARK   91  A    between atoms: _209  and  _210
REMARK   92  A    between atoms: _209  and  _212
REMARK   93  A    between atoms: _212  and  _213
REMARK   94  A    between atoms: _216  and  _218
REMARK   95  A    between atoms: _218  and  _219
REMARK   96  A    between atoms: _218  and  _221
REMARK   97  A    between atoms: _221  and  _222
REMARK   98  A    between atoms: _228  and  _230
REMARK   99  A    between atoms: _230  and  _231
REMARK  100  A    between atoms: _230  and  _233
REMARK  101  A    between atoms: _233  and  _234
REMARK  102  A    between atoms: _237  and  _239
REMARK  103  A    between atoms: _239  and  _240
REMARK  104  A    between atoms: _243  and  _245
REMARK  105  A    between atoms: _245  and  _246
REMARK  106  A    between atoms: _245  and  _248
REMARK  107  A    between atoms: _248  and  _249
REMARK  108  A    between atoms: _252  and  _254
REMARK  109  A    between atoms: _254  and  _255
REMARK  110  A    between atoms: _259  and  _260
REMARK  111  A    between atoms: _265  and  _267
REMARK  112  A    between atoms: _267  and  _268
REMARK  113  A    between atoms: _267  and  _270
REMARK  114  A    between atoms: _270  and  _271
REMARK  115  A    between atoms: _274  and  _276
REMARK  116  A    between atoms: _276  and  _277
REMARK  117  A    between atoms: _276  and  _279
REMARK  118  A    between atoms: _279  and  _280
REMARK  119  A    between atoms: _286  and  _288
REMARK  120  A    between atoms: _288  and  _289
REMARK  121  A    between atoms: _293  and  _294
REMARK  122  A    between atoms: _299  and  _301
REMARK  123  A    between atoms: _301  and  _302
REMARK  124  A    between atoms: _301  and  _304
REMARK  125  A    between atoms: _304  and  _305
REMARK  126  A    between atoms: _308  and  _310
REMARK  127  A    between atoms: _310  and  _311
REMARK  128  A    between atoms: _310  and  _313
REMARK  129  A    between atoms: _313  and  _314
REMARK  130  A    between atoms: _319  and  _320
REMARK                            x       y       z     vdW  Elec       q    Type
REMARK                         _______ _______ _______ _____ _____    ______ ____
ROOT
ATOM      1  CA  THR A   1      -0.907   2.033  -8.222  0.00  0.00    +0.160 C 
ENDROOT
BRANCH   1   2
ATOM      2  N   THR A   1       0.234   2.941  -8.164  0.00  0.00    -0.237 NA
ATOM      3  H   THR A   1       1.127   2.615  -7.742  0.00  0.00    +0.142 HD
ENDBRANCH   1   2
BRANCH   1   4
ATOM      4  C   THR A   1      -1.244   1.613  -6.782  0.00  0.00    +0.227 C 
ATOM      5  O   THR A   1      -2.135   2.187  -6.151  0.00  0.00    -0.287 OA
ENDBRANCH   1   4
BRANCH   1   6
ATOM      6  CB  THR A   1      -0.726   0.867  -9.182  0.00  0.00    +0.134 C 
ATOM      7  CG2 THR A   1      -0.604   1.357 -10.618  0.00  0.00    +0.034 C 
BRANCH   6   8
ATOM      8  OG1 THR A   1       0.435   0.100  -8.830  0.00  0.00    -0.383 OA
ATOM      9  HG1 THR A   1       1.237   0.679  -8.872  0.00  0.00    +0.210 HD
ENDBRANCH   6   8
ENDBRANCH   1   6
TORSDOF 4
REMARK  Name = ../refined-set-2016/3tk2/3tk2_pocket.pdb
REMARK  130 active torsions:
REMARK  status: ('A' for Active; 'I' for Inactive)
REMARK    1  A    between atoms: _1  and  _3
REMARK    2  A    between atoms: _3  and  _4
REMARK    3  A    between atoms: _3  and  _6
REMARK    4  A    between atoms: _6  and  _7
REMARK    5  A    between atoms: _13  and  _15
REMARK    6  A    between atoms: _15  and  _16
REMARK    7  A    between atoms: _15  and  _18
REMARK    8  A    between atoms: _18  and  _19
REMARK    9  A    between atoms: _22  and  _24
REMARK   10  A    between atoms: _24  and  _25
REMARK   11  A    between atoms: _24  and  _27
REMARK   12  A    between atoms: _27  and  _28
REMARK   13  A    between atoms: _33  and  _34
REMARK   14  A    between atoms: _36  and  _38
REMARK   15  A    between atoms: _38  and  _39
REMARK   16  A    between atoms: _38  and  _41
REMARK   17  A    between atoms: _41  and  _42
REMARK   18  A    between atoms: _45  and  _47
REMARK   19  A    between atoms: _47  and  _48
REMARK   20  A    between atoms: _47  and  _50
REMARK   21  A    between atoms: _50  and  _51
REMARK   22  A    between atoms: _51  and  _52
REMARK   23  A    between atoms: _55  and  _57
REMARK   24  A    between atoms: _57  and  _58
REMARK   25  A    between atoms: _61  and  _63
REMARK   26  A    between atoms: _63  and  _64
REMARK   27  A    between atoms: _63  and  _66
REMARK   28  A    between atoms: _66  and  _67
REMARK   29  A    between atoms: _72  and  _73
REMARK   30  A    between atoms: _75  and  _77
REMARK   31  A    between atoms: _77  and  _78
REMARK   32  A    between atoms: _80  and  _82
REMARK   33  A    between atoms: _82  and  _83
REMARK   34  A    between atoms: _82  and  _85
REMARK   35  A    between atoms: _85  and  _86
REMARK   36  A    between atoms: _86  and  _87
REMARK   37  A    between atoms: _87  and  _88
REMARK   38  A    between atoms: _88  and  _89
REMARK   39  A    between atoms: _93  and  _95
REMARK   40  A    between atoms: _95  and  _96
REMARK   41  A    between atoms: _98  and  _100
REMARK   42  A    between atoms: _100  and  _101
REMARK   43  A    between atoms: _103  and  _105
REMARK   44  A    between atoms: _105  and  _106
REMARK   45  A    between atoms: _105  and  _108
REMARK   46  A    between atoms: _111  and  _113
REMARK   47  A    between atoms: _113  and  _114
REMARK   48  A    between atoms: _113  and  _116
REMARK   49  A    between atoms: _116  and  _117
REMARK   50  A    between atoms: _117  and  _118
REMARK   51  A    between atoms: _118  and  _119
REMARK   52  A    between atoms: _119  and  _120
REMARK   53  A    between atoms: _124  and  _126
REMARK   54  A    between atoms: _126  and  _127
REMARK   55  A    between atoms: _130  and  _132
REMARK   56  A    between atoms: _132  and  _133
REMARK   57  A    between atoms: _132  and  _135
REMARK   58  A    between atoms: _135  and  _136
REMARK   59  A    between atoms: _139  and  _141
REMARK   60  A    between atoms: _141  and  _142
REMARK   61  A    between atoms: _141  and  _144
REMARK   62  A    between atoms: _144  and  _145
REMARK   63  A    between atoms: _145  and  _146
REMARK   64  A    between atoms: _148  and  _150
REMARK   65  A    between atoms: _150  and  _151
REMARK   66  A    between atoms: _150  and  _153
REMARK   67  A    between atoms: _153  and  _154
REMARK   68  A    between atoms: _157  and  _159
REMARK   69  A    between atoms: _159  and  _160
REMARK   70  A    between atoms: _159  and  _162
REMARK   71  A    between atoms: _162  and  _163
REMARK   72  A    between atoms: _166  and  _168
REMARK   73  A    between atoms: _168  and  _169
REMARK   74  A    between atoms: _168  and  _171
REMARK   75  A    between atoms: _171  and  _172
REMARK   76  A    between atoms: _177  and  _178
REMARK   77  A    between atoms: _180  and  _182
REMARK   78  A    between atoms: _182  and  _183
REMARK   79  A    between atoms: _182  and  _185
REMARK   80  A    between atoms: _185  and  _186
REMARK   81  A    between atoms: _189  and  _191
REMARK   82  A    between atoms: _191  and  _192
REMARK   83  A    between atoms: _191  and  _194
REMARK   84  A    between atoms: _194  and  _195
REMARK   85  A    between atoms: _198  and  _200
REMARK   86  A    between atoms: _200  and  _201
REMARK   87  A    between atoms: _200  and  _203
REMARK   88  A    between atoms: _203  and  _204
REMARK   89  A    between atoms: _204  and  _205
REMARK   90  A    between atoms: _207  and  _209
REMARK   91  A    between atoms: _209  and  _210
REMARK   92  A    between atoms: _209  and  _212
REMARK   93  A    between atoms: _212  and  _213
REMARK   94  A    between atoms: _216  and  _218
REMARK   95  A    between atoms: _218  and  _219
REMARK   96  A    between atoms: _218  and  _221
REMARK   97  A    between atoms: _221  and  _222
REMARK   98  A    between atoms: _228  and  _230
REMARK   99  A    between atoms: _230  and  _231
REMARK  100  A    between atoms: _230  and  _233
REMARK  101  A    between atoms: _233  and  _234
REMARK  102  A    between atoms: _237  and  _239
REMARK  103  A    between atoms: _239  and  _240
REMARK  104  A    between atoms: _243  and  _245
REMARK  105  A    between atoms: _245  and  _246
REMARK  106  A    between atoms: _245  and  _248
REMARK  107  A    between atoms: _248  and  _249
REMARK  108  A    between atoms: _252  and  _254
REMARK  109  A    between atoms: _254  and  _255
REMARK  110  A    between atoms: _259  and  _260
REMARK  111  A    between atoms: _265  and  _267
REMARK  112  A    between atoms: _267  and  _268
REMARK  113  A    between atoms: _267  and  _270
REMARK  114  A    between atoms: _270  and  _271
REMARK  115  A    between atoms: _274  and  _276
REMARK  116  A    between atoms: _276  and  _277
REMARK  117  A    between atoms: _276  and  _279
REMARK  118  A    between atoms: _279  and  _280
REMARK  119  A    between atoms: _286  and  _288
REMARK  120  A    between atoms: _288  and  _289
REMARK  121  A    between atoms: _293  and  _294
REMARK  122  A    between atoms: _299  and  _301
REMARK  123  A    between atoms: _301  and  _302
REMARK  124  A    between atoms: _301  and  _304
REMARK  125  A    between atoms: _304  and  _305
REMARK  126  A    between atoms: _308  and  _310
REMARK  127  A    between atoms: _310  and  _311
REMARK  128  A    between atoms: _310  and  _313
REMARK  129  A    between atoms: _313  and  _314
REMARK  130  A    between atoms: _319  and  _320
REMARK                            x       y       z     vdW  Elec       q    Type
REMARK                         _______ _______ _______ _____ _____    ______ ____
ROOT
ATOM      1  CA  LEU A   1       2.318   1.895 -17.947  0.00  0.00    +0.133 C 
ENDROOT
BRANCH   1   2
ATOM      2  N   LEU A   1       1.183   2.600 -18.572  0.00  0.00    -0.239 NA
ATOM      3  H   LEU A   1       0.568   2.088 -19.236  0.00  0.00    +0.142 HD
ENDBRANCH   1   2
BRANCH   1   4
ATOM      4  C   LEU A   1       3.633   2.596 -18.208  0.00  0.00    +0.224 C 
ATOM      5  O   LEU A   1       4.425   2.811 -17.272  0.00  0.00    -0.287 OA
ENDBRANCH   1   4
BRANCH   1   6
ATOM      6  CB  LEU A   1       2.377   0.498 -18.551  0.00  0.00    +0.025 C 
BRANCH   6   7
ATOM      7  CG  LEU A   1       3.611  -0.305 -18.141  0.00  0.00    +0.002 C 
ATOM      8  CD2 LEU A   1       3.629  -0.520 -16.590  0.00  0.00    +0.000 C 
ATOM      9  CD1 LEU A   1       3.608  -1.616 -18.862  0.00  0.00    +0.000 C 
ENDBRANCH   6   7
ENDBRANCH   1   6
TORSDOF 4
REMARK  Name = ../refined-set-2016/3tk2/3tk2_pocket.pdb
REMARK  130 active torsions:
REMARK  status: ('A' for Active; 'I' for Inactive)
REMARK    1  A    between atoms: _1  and  _3
REMARK    2  A    between atoms: _3  and  _4
REMARK    3  A    between atoms: _3  and  _6
REMARK    4  A    between atoms: _6  and  _7
REMARK    5  A    between atoms: _13  and  _15
REMARK    6  A    between atoms: _15  and  _16
REMARK    7  A    between atoms: _15  and  _18
REMARK    8  A    between atoms: _18  and  _19
REMARK    9  A    between atoms: _22  and  _24
REMARK   10  A    between atoms: _24  and  _25
REMARK   11  A    between atoms: _24  and  _27
REMARK   12  A    between atoms: _27  and  _28
REMARK   13  A    between atoms: _33  and  _34
REMARK   14  A    between atoms: _36  and  _38
REMARK   15  A    between atoms: _38  and  _39
REMARK   16  A    between atoms: _38  and  _41
REMARK   17  A    between atoms: _41  and  _42
REMARK   18  A    between atoms: _45  and  _47
REMARK   19  A    between atoms: _47  and  _48
REMARK   20  A    between atoms: _47  and  _50
REMARK   21  A    between atoms: _50  and  _51
REMARK   22  A    between atoms: _51  and  _52
REMARK   23  A    between atoms: _55  and  _57
REMARK   24  A    between atoms: _57  and  _58
REMARK   25  A    between atoms: _61  and  _63
REMARK   26  A    between atoms: _63  and  _64
REMARK   27  A    between atoms: _63  and  _66
REMARK   28  A    between atoms: _66  and  _67
REMARK   29  A    between atoms: _72  and  _73
REMARK   30  A    between atoms: _75  and  _77
REMARK   31  A    between atoms: _77  and  _78
REMARK   32  A    between atoms: _80  and  _82
REMARK   33  A    between atoms: _82  and  _83
REMARK   34  A    between atoms: _82  and  _85
REMARK   35  A    between atoms: _85  and  _86
REMARK   36  A    between atoms: _86  and  _87
REMARK   37  A    between atoms: _87  and  _88
REMARK   38  A    between atoms: _88  and  _89
REMARK   39  A    between atoms: _93  and  _95
REMARK   40  A    between atoms: _95  and  _96
REMARK   41  A    between atoms: _98  and  _100
REMARK   42  A    between atoms: _100  and  _101
REMARK   43  A    between atoms: _103  and  _105
REMARK   44  A    between atoms: _105  and  _106
REMARK   45  A    between atoms: _105  and  _108
REMARK   46  A    between atoms: _111  and  _113
REMARK   47  A    between atoms: _113  and  _114
REMARK   48  A    between atoms: _113  and  _116
REMARK   49  A    between atoms: _116  and  _117
REMARK   50  A    between atoms: _117  and  _118
REMARK   51  A    between atoms: _118  and  _119
REMARK   52  A    between atoms: _119  and  _120
REMARK   53  A    between atoms: _124  and  _126
REMARK   54  A    between atoms: _126  and  _127
REMARK   55  A    between atoms: _130  and  _132
REMARK   56  A    between atoms: _132  and  _133
REMARK   57  A    between atoms: _132  and  _135
REMARK   58  A    between atoms: _135  and  _136
REMARK   59  A    between atoms: _139  and  _141
REMARK   60  A    between atoms: _141  and  _142
REMARK   61  A    between atoms: _141  and  _144
REMARK   62  A    between atoms: _144  and  _145
REMARK   63  A    between atoms: _145  and  _146
REMARK   64  A    between atoms: _148  and  _150
REMARK   65  A    between atoms: _150  and  _151
REMARK   66  A    between atoms: _150  and  _153
REMARK   67  A    between atoms: _153  and  _154
REMARK   68  A    between atoms: _157  and  _159
REMARK   69  A    between atoms: _159  and  _160
REMARK   70  A    between atoms: _159  and  _162
REMARK   71  A    between atoms: _162  and  _163
REMARK   72  A    between atoms: _166  and  _168
REMARK   73  A    between atoms: _168  and  _169
REMARK   74  A    between atoms: _168  and  _171
REMARK   75  A    between atoms: _171  and  _172
REMARK   76  A    between atoms: _177  and  _178
REMARK   77  A    between atoms: _180  and  _182
REMARK   78  A    between atoms: _182  and  _183
REMARK   79  A    between atoms: _182  and  _185
REMARK   80  A    between atoms: _185  and  _186
REMARK   81  A    between atoms: _189  and  _191
REMARK   82  A    between atoms: _191  and  _192
REMARK   83  A    between atoms: _191  and  _194
REMARK   84  A    between atoms: _194  and  _195
REMARK   85  A    between atoms: _198  and  _200
REMARK   86  A    between atoms: _200  and  _201
REMARK   87  A    between atoms: _200  and  _203
REMARK   88  A    between atoms: _203  and  _204
REMARK   89  A    between atoms: _204  and  _205
REMARK   90  A    between atoms: _207  and  _209
REMARK   91  A    between atoms: _209  and  _210
REMARK   92  A    between atoms: _209  and  _212
REMARK   93  A    between atoms: _212  and  _213
REMARK   94  A    between atoms: _216  and  _218
REMARK   95  A    between atoms: _218  and  _219
REMARK   96  A    between atoms: _218  and  _221
REMARK   97  A    between atoms: _221  and  _222
REMARK   98  A    between atoms: _228  and  _230
REMARK   99  A    between atoms: _230  and  _231
REMARK  100  A    between atoms: _230  and  _233
REMARK  101  A    between atoms: _233  and  _234
REMARK  102  A    between atoms: _237  and  _239
REMARK  103  A    between atoms: _239  and  _240
REMARK  104  A    between atoms: _243  and  _245
REMARK  105  A    between atoms: _245  and  _246
REMARK  106  A    between atoms: _245  and  _248
REMARK  107  A    between atoms: _248  and  _249
REMARK  108  A    between atoms: _252  and  _254
REMARK  109  A    between atoms: _254  and  _255
REMARK  110  A    between atoms: _259  and  _260
REMARK  111  A    between atoms: _265  and  _267
REMARK  112  A    between atoms: _267  and  _268
REMARK  113  A    between atoms: _267  and  _270
REMARK  114  A    between atoms: _270  and  _271
REMARK  115  A    between atoms: _274  and  _276
REMARK  116  A    between atoms: _276  and  _277
REMARK  117  A    between atoms: _276  and  _279
REMARK  118  A    between atoms: _279  and  _280
REMARK  119  A    between atoms: _286  and  _288
REMARK  120  A    between atoms: _288  and  _289
REMARK  121  A    between atoms: _293  and  _294
REMARK  122  A    between atoms: _299  and  _301
REMARK  123  A    between atoms: _301  and  _302
REMARK  124  A    between atoms: _301  and  _304
REMARK  125  A    between atoms: _304  and  _305
REMARK  126  A    between atoms: _308  and  _310
REMARK  127  A    between atoms: _310  and  _311
REMARK  128  A    between atoms: _310  and  _313
REMARK  129  A    between atoms: _313  and  _314
REMARK  130  A    between atoms: _319  and  _320
REMARK                            x       y       z     vdW  Elec       q    Type
REMARK                         _______ _______ _______ _____ _____    ______ ____
ROOT
ATOM      1  CA  MET A   1       7.461   3.892 -15.013  0.00  0.00    +0.134 C 
ENDROOT
BRANCH   1   2
ATOM      2  N   MET A   1       6.126   4.382 -15.353  0.00  0.00    -0.239 NA
ATOM      3  H   MET A   1       5.606   3.998 -16.168  0.00  0.00    +0.142 HD
ENDBRANCH   1   2
BRANCH   1   4
ATOM      4  C   MET A   1       8.517   4.914 -15.339  0.00  0.00    +0.224 C 
ATOM      5  O   MET A   1       9.648   4.714 -14.940  0.00  0.00    -0.287 OA
ENDBRANCH   1   4
BRANCH   1   6
ATOM      6  CB  MET A   1       7.772   2.583 -15.666  0.00  0.00    +0.037 C 
BRANCH   6   7
ATOM      7  CG  MET A   1       6.859   1.483 -15.050  0.00  0.00    +0.059 C 
BRANCH   7   8
ATOM      8  SD  MET A   1       7.530  -0.215 -15.371  0.00  0.00    -0.139 S 
ATOM      9  CE  MET A   1       7.489  -0.313 -17.194  0.00  0.00    +0.069 C 
ENDBRANCH   7   8
ENDBRANCH   6   7
ENDBRANCH   1   6
TORSDOF 5
REMARK  Name = ../refined-set-2016/3tk2/3tk2_pocket.pdb
REMARK  130 active torsions:
REMARK  status: ('A' for Active; 'I' for Inactive)
REMARK    1  A    between atoms: _1  and  _3
REMARK    2  A    between atoms: _3  and  _4
REMARK    3  A    between atoms: _3  and  _6
REMARK    4  A    between atoms: _6  and  _7
REMARK    5  A    between atoms: _13  and  _15
REMARK    6  A    between atoms: _15  and  _16
REMARK    7  A    between atoms: _15  and  _18
REMARK    8  A    between atoms: _18  and  _19
REMARK    9  A    between atoms: _22  and  _24
REMARK   10  A    between atoms: _24  and  _25
REMARK   11  A    between atoms: _24  and  _27
REMARK   12  A    between atoms: _27  and  _28
REMARK   13  A    between atoms: _33  and  _34
REMARK   14  A    between atoms: _36  and  _38
REMARK   15  A    between atoms: _38  and  _39
REMARK   16  A    between atoms: _38  and  _41
REMARK   17  A    between atoms: _41  and  _42
REMARK   18  A    between atoms: _45  and  _47
REMARK   19  A    between atoms: _47  and  _48
REMARK   20  A    between atoms: _47  and  _50
REMARK   21  A    between atoms: _50  and  _51
REMARK   22  A    between atoms: _51  and  _52
REMARK   23  A    between atoms: _55  and  _57
REMARK   24  A    between atoms: _57  and  _58
REMARK   25  A    between atoms: _61  and  _63
REMARK   26  A    between atoms: _63  and  _64
REMARK   27  A    between atoms: _63  and  _66
REMARK   28  A    between atoms: _66  and  _67
REMARK   29  A    between atoms: _72  and  _73
REMARK   30  A    between atoms: _75  and  _77
REMARK   31  A    between atoms: _77  and  _78
REMARK   32  A    between atoms: _80  and  _82
REMARK   33  A    between atoms: _82  and  _83
REMARK   34  A    between atoms: _82  and  _85
REMARK   35  A    between atoms: _85  and  _86
REMARK   36  A    between atoms: _86  and  _87
REMARK   37  A    between atoms: _87  and  _88
REMARK   38  A    between atoms: _88  and  _89
REMARK   39  A    between atoms: _93  and  _95
REMARK   40  A    between atoms: _95  and  _96
REMARK   41  A    between atoms: _98  and  _100
REMARK   42  A    between atoms: _100  and  _101
REMARK   43  A    between atoms: _103  and  _105
REMARK   44  A    between atoms: _105  and  _106
REMARK   45  A    between atoms: _105  and  _108
REMARK   46  A    between atoms: _111  and  _113
REMARK   47  A    between atoms: _113  and  _114
REMARK   48  A    between atoms: _113  and  _116
REMARK   49  A    between atoms: _116  and  _117
REMARK   50  A    between atoms: _117  and  _118
REMARK   51  A    between atoms: _118  and  _119
REMARK   52  A    between atoms: _119  and  _120
REMARK   53  A    between atoms: _124  and  _126
REMARK   54  A    between atoms: _126  and  _127
REMARK   55  A    between atoms: _130  and  _132
REMARK   56  A    between atoms: _132  and  _133
REMARK   57  A    between atoms: _132  and  _135
REMARK   58  A    between atoms: _135  and  _136
REMARK   59  A    between atoms: _139  and  _141
REMARK   60  A    between atoms: _141  and  _142
REMARK   61  A    between atoms: _141  and  _144
REMARK   62  A    between atoms: _144  and  _145
REMARK   63  A    between atoms: _145  and  _146
REMARK   64  A    between atoms: _148  and  _150
REMARK   65  A    between atoms: _150  and  _151
REMARK   66  A    between atoms: _150  and  _153
REMARK   67  A    between atoms: _153  and  _154
REMARK   68  A    between atoms: _157  and  _159
REMARK   69  A    between atoms: _159  and  _160
REMARK   70  A    between atoms: _159  and  _162
REMARK   71  A    between atoms: _162  and  _163
REMARK   72  A    between atoms: _166  and  _168
REMARK   73  A    between atoms: _168  and  _169
REMARK   74  A    between atoms: _168  and  _171
REMARK   75  A    between atoms: _171  and  _172
REMARK   76  A    between atoms: _177  and  _178
REMARK   77  A    between atoms: _180  and  _182
REMARK   78  A    between atoms: _182  and  _183
REMARK   79  A    between atoms: _182  and  _185
REMARK   80  A    between atoms: _185  and  _186
REMARK   81  A    between atoms: _189  and  _191
REMARK   82  A    between atoms: _191  and  _192
REMARK   83  A    between atoms: _191  and  _194
REMARK   84  A    between atoms: _194  and  _195
REMARK   85  A    between atoms: _198  and  _200
REMARK   86  A    between atoms: _200  and  _201
REMARK   87  A    between atoms: _200  and  _203
REMARK   88  A    between atoms: _203  and  _204
REMARK   89  A    between atoms: _204  and  _205
REMARK   90  A    between atoms: _207  and  _209
REMARK   91  A    between atoms: _209  and  _210
REMARK   92  A    between atoms: _209  and  _212
REMARK   93  A    between atoms: _212  and  _213
REMARK   94  A    between atoms: _216  and  _218
REMARK   95  A    between atoms: _218  and  _219
REMARK   96  A    between atoms: _218  and  _221
REMARK   97  A    between atoms: _221  and  _222
REMARK   98  A    between atoms: _228  and  _230
REMARK   99  A    between atoms: _230  and  _231
REMARK  100  A    between atoms: _230  and  _233
REMARK  101  A    between atoms: _233  and  _234
REMARK  102  A    between atoms: _237  and  _239
REMARK  103  A    between atoms: _239  and  _240
REMARK  104  A    between atoms: _243  and  _245
REMARK  105  A    between atoms: _245  and  _246
REMARK  106  A    between atoms: _245  and  _248
REMARK  107  A    between atoms: _248  and  _249
REMARK  108  A    between atoms: _252  and  _254
REMARK  109  A    between atoms: _254  and  _255
REMARK  110  A    between atoms: _259  and  _260
REMARK  111  A    between atoms: _265  and  _267
REMARK  112  A    between atoms: _267  and  _268
REMARK  113  A    between atoms: _267  and  _270
REMARK  114  A    between atoms: _270  and  _271
REMARK  115  A    between atoms: _274  and  _276
REMARK  116  A    between atoms: _276  and  _277
REMARK  117  A    between atoms: _276  and  _279
REMARK  118  A    between atoms: _279  and  _280
REMARK  119  A    between atoms: _286  and  _288
REMARK  120  A    between atoms: _288  and  _289
REMARK  121  A    between atoms: _293  and  _294
REMARK  122  A    between atoms: _299  and  _301
REMARK  123  A    between atoms: _301  and  _302
REMARK  124  A    between atoms: _301  and  _304
REMARK  125  A    between atoms: _304  and  _305
REMARK  126  A    between atoms: _308  and  _310
REMARK  127  A    between atoms: _310  and  _311
REMARK  128  A    between atoms: _310  and  _313
REMARK  129  A    between atoms: _313  and  _314
REMARK  130  A    between atoms: _319  and  _320
REMARK                            x       y       z     vdW  Elec       q    Type
REMARK                         _______ _______ _______ _____ _____    ______ ____
ROOT
ATOM      1  C   PRO A   7       5.091  -7.883 -20.865  0.00  0.00    +0.241 C 
ATOM      2  O   PRO A   7       5.335  -7.617 -19.680  0.00  0.00    -0.273 OA
ATOM      3  N   ASP A   8       6.050  -8.243 -21.698  0.00  0.00    -0.297 N 
ATOM      4  H   ASP A   8       5.798  -8.481 -22.678  0.00  0.00    +0.150 HD
ENDROOT
BRANCH   1  11
ATOM      5  C   ALA A   6       2.340  -8.667 -19.503  0.00  0.00    +0.244 C 
ATOM      6  O   ALA A   6       2.974  -9.717 -19.570  0.00  0.00    -0.273 OA
ATOM      7  N   PRO A   7       2.559  -7.704 -20.440  0.00  0.00    -0.272 N 
ATOM      8  CD  PRO A   7       1.763  -6.499 -20.650  0.00  0.00    +0.094 C 
ATOM      9  CG  PRO A   7       1.958  -6.253 -22.088  0.00  0.00    +0.024 C 
ATOM     10  CB  PRO A   7       3.431  -6.560 -22.243  0.00  0.00    +0.031 C 
ATOM     11  CA  PRO A   7       3.624  -7.809 -21.424  0.00  0.00    +0.152 C 
BRANCH   5  12
ATOM     12  CA  ALA A   6       1.246  -8.452 -18.331  0.00  0.00    +0.149 C 
ATOM     13  CB  ALA A   6       0.020  -9.409 -18.656  0.00  0.00    +0.031 C 
BRANCH  12  16
ATOM     14  C   THR A   5       1.399  -6.340 -17.071  0.00  0.00    +0.243 C 
ATOM     15  O   THR A   5       2.436  -6.700 -16.513  0.00  0.00    -0.273 OA
ATOM     16  N   ALA A   6       0.781  -7.109 -17.976  0.00  0.00    -0.297 N 
ATOM     17  H   ALA A   6      -0.067  -6.736 -18.448  0.00  0.00    +0.150 HD
BRANCH  14  18
ATOM     18  CA  THR A   5       0.964  -4.890 -16.906  0.00  0.00    +0.176 C 
BRANCH  18  20
ATOM     19  C   ALA A   4      -0.441  -3.792 -18.480  0.00  0.00    +0.241 C 
ATOM     20  N   THR A   5      -0.316  -4.543 -17.439  0.00  0.00    -0.295 N 
ATOM     21  H   THR A   5      -1.172  -4.907 -16.974  0.00  0.00    +0.150 HD
ATOM     22  O   ALA A   4       0.509  -3.305 -19.028  0.00  0.00    -0.273 OA
BRANCH  19  23
ATOM     23  CA  ALA A   4      -1.866  -3.513 -18.941  0.00  0.00    +0.149 C 
ATOM     24  CB  ALA A   4      -2.331  -2.105 -18.494  0.00  0.00    +0.031 C 
BRANCH  23  26
ATOM     25  C   ASP A   3      -2.631  -5.846 -18.745  0.00  0.00    +0.241 C 
ATOM     26  N   ALA A   4      -2.819  -4.548 -18.520  0.00  0.00    -0.297 N 
ATOM     27  H   ALA A   4      -3.683  -4.252 -18.022  0.00  0.00    +0.150 HD
ATOM     28  O   ASP A   3      -1.743  -6.299 -19.489  0.00  0.00    -0.273 OA
BRANCH  25  29
ATOM     29  CA  ASP A   3      -3.698  -6.755 -18.133  0.00  0.00    +0.160 C 
BRANCH  29  32
ATOM     30  C   PHE A   2      -3.075  -6.994 -15.798  0.00  0.00    +0.241 C 
ATOM     31  O   PHE A   2      -1.928  -7.399 -16.085  0.00  0.00    -0.273 OA
ATOM     32  N   ASP A   3      -3.959  -6.568 -16.692  0.00  0.00    -0.297 N 
ATOM     33  H   ASP A   3      -4.835  -6.103 -16.378  0.00  0.00    +0.150 HD
BRANCH  30  34
ATOM     34  CA  PHE A   2      -3.481  -6.834 -14.304  0.00  0.00    +0.153 C 
BRANCH  34  36
ATOM     35  C   LEU A   1      -3.192  -4.492 -14.204  0.00  0.00    +0.238 C 
ATOM     36  N   PHE A   2      -4.017  -5.533 -14.064  0.00  0.00    -0.297 N 
ATOM     37  H   PHE A   2      -5.012  -5.401 -13.791  0.00  0.00    +0.150 HD
ATOM     38  O   LEU A   1      -2.105  -4.551 -14.694  0.00  0.00    -0.274 OA
BRANCH  35  39
ATOM     39  CA  LEU A   1      -3.665  -3.202 -13.773  0.00  0.00    +0.145 C 
BRANCH  39  40
ATOM     40  N   LEU A   1      -5.002  -3.036 -14.392  0.00  0.00    -0.238 NA
ATOM     41  H   LEU A   1      -5.805  -2.790 -13.778  0.00  0.00    +0.142 HD
ENDBRANCH  39  40
BRANCH  39  42
ATOM     42  CB  LEU A   1      -3.569  -3.102 -12.186  0.00  0.00    +0.026 C 
BRANCH  42  43
ATOM     43  CG  LEU A   1      -3.957  -1.893 -11.450  0.00  0.00    +0.002 C 
ATOM     44  CD2 LEU A   1      -4.136  -2.148 -10.052  0.00  0.00    +0.000 C 
ATOM     45  CD1 LEU A   1      -2.932  -0.875 -11.745  0.00  0.00    +0.000 C 
ENDBRANCH  42  43
ENDBRANCH  39  42
ENDBRANCH  35  39
ENDBRANCH  34  36
BRANCH  34  46
ATOM     46  CB  PHE A   2      -4.439  -7.937 -13.841  0.00  0.00    +0.055 C 
BRANCH  46  47
ATOM     47  CG  PHE A   2      -3.833  -9.258 -14.050  0.00  0.00    -0.020 A 
ATOM     48  CD2 PHE A   2      -2.941  -9.772 -13.120  0.00  0.00    -0.004 A 
ATOM     49  CE2 PHE A   2      -2.346 -10.997 -13.307  0.00  0.00    -0.000 A 
ATOM     50  CZ  PHE A   2      -2.549 -11.702 -14.435  0.00  0.00    -0.000 A 
ATOM     51  CE1 PHE A   2      -3.420 -11.198 -15.447  0.00  0.00    -0.000 A 
ATOM     52  CD1 PHE A   2      -4.044  -9.971 -15.268  0.00  0.00    -0.004 A 
ENDBRANCH  46  47
ENDBRANCH  34  46
ENDBRANCH  30  34
ENDBRANCH  29  32
BRANCH  29  53
ATOM     53  CB  ASP A   3      -4.967  -6.555 -18.934  0.00  0.00    +0.143 C 
BRANCH  53  54
ATOM     54  CG  ASP A   3      -5.923  -7.664 -18.786  0.00  0.00    +0.367 C 
ATOM     55  OD2 ASP A   3      -5.591  -8.729 -18.255  0.00  0.00    -0.246 OA
ATOM     56  OD1 ASP A   3      -7.031  -7.463 -19.303  0.00  0.00    -0.246 OA
ENDBRANCH  53  54
ENDBRANCH  29  53
ENDBRANCH  25  29
ENDBRANCH  23  26
ENDBRANCH  19  23
ENDBRANCH  18  20
BRANCH  18  57
ATOM     57  CB  THR A   5       1.093  -4.546 -15.340  0.00  0.00    +0.137 C 
ATOM     58  CG2 THR A   5       0.862  -3.044 -15.066  0.00  0.00    +0.034 C 
BRANCH  57  59
ATOM     59  OG1 THR A   5       0.125  -5.334 -14.612  0.00  0.00    -0.382 OA
ATOM     60  HG1 THR A   5      -0.786  -5.114 -14.932  0.00  0.00    +0.210 HD
ENDBRANCH  57  59
ENDBRANCH  18  57
ENDBRANCH  14  18
ENDBRANCH  12  16
ENDBRANCH   5  12
ENDBRANCH   1  11
BRANCH   3  61
ATOM     61  CA  ASP A   8       7.467  -8.321 -21.291  0.00  0.00    +0.160 C 
BRANCH  61  62
ATOM     62  C   ASP A   8       7.979  -6.917 -20.988  0.00  0.00    +0.241 C 
ATOM     63  N   PHE A   9       8.413  -6.658 -19.757  0.00  0.00    -0.297 N 
ATOM     64  H   PHE A   9       8.421  -7.416 -19.045  0.00  0.00    +0.150 HD
ATOM     65  O   ASP A   8       7.979  -6.044 -21.872  0.00  0.00    -0.273 OA
BRANCH  63  66
ATOM     66  CA  PHE A   9       8.879  -5.318 -19.392  0.00  0.00    +0.153 C 
BRANCH  66  67
ATOM     67  C   PHE A   9      10.338  -5.070 -19.811  0.00  0.00    +0.241 C 
ATOM     68  O   PHE A   9      10.750  -3.927 -19.756  0.00  0.00    -0.273 OA
ATOM     69  N   ALA A  10      11.093  -6.104 -20.240  0.00  0.00    -0.297 N 
ATOM     70  H   ALA A  10      10.670  -7.045 -20.369  0.00  0.00    +0.150 HD
BRANCH  69  71
ATOM     71  CA  ALA A  10      12.497  -5.889 -20.518  0.00  0.00    +0.149 C 
ATOM     72  CB  ALA A  10      13.227  -7.186 -20.846  0.00  0.00    +0.031 C 
BRANCH  71  73
ATOM     73  C   ALA A  10      12.755  -4.781 -21.555  0.00  0.00    +0.244 C 
ATOM     74  O   ALA A  10      13.581  -3.893 -21.299  0.00  0.00    -0.273 OA
ATOM     75  N   PRO A  11      12.078  -4.793 -22.683  0.00  0.00    -0.272 N 
ATOM     76  CD  PRO A  11      11.241  -5.889 -23.248  0.00  0.00    +0.094 C 
ATOM     77  CG  PRO A  11      10.827  -5.293 -24.553  0.00  0.00    +0.024 C 
ATOM     78  CB  PRO A  11      11.620  -4.185 -24.941  0.00  0.00    +0.031 C 
ATOM     79  CA  PRO A  11      12.377  -3.735 -23.672  0.00  0.00    +0.152 C 
BRANCH  79  80
ATOM     80  C   PRO A  11      11.835  -2.406 -23.179  0.00  0.00    +0.241 C 
ATOM     81  N   LEU A  12      10.878  -2.454 -22.232  0.00  0.00    -0.297 N 
ATOM     82  H   LEU A  12      10.515  -3.363 -21.880  0.00  0.00    +0.150 HD
ATOM     83  O   PRO A  11      12.307  -1.327 -23.650  0.00  0.00    -0.273 OA
BRANCH  81  84
ATOM     84  CA  LEU A  12      10.367  -1.186 -21.717  0.00  0.00    +0.149 C 
BRANCH  84  85
ATOM     85  C   LEU A  12      11.436  -0.580 -20.783  0.00  0.00    +0.241 C 
ATOM     86  N   TYR A  13      12.021  -1.363 -19.915  0.00  0.00    -0.298 N 
ATOM     87  H   TYR A  13      11.719  -2.355 -19.834  0.00  0.00    +0.150 HD
ATOM     88  O   LEU A  12      11.732   0.598 -20.885  0.00  0.00    -0.273 OA
BRANCH  86  89
ATOM     89  CA  TYR A  13      13.098  -0.863 -19.053  0.00  0.00    +0.141 C 
BRANCH  89  90
ATOM     90  C   TYR A  13      14.238  -0.286 -19.842  0.00  0.00    +0.227 C 
ATOM     91  O   TYR A  13      14.774   0.772 -19.454  0.00  0.00    -0.286 OA
ENDBRANCH  89  90
BRANCH  89  92
ATOM     92  CB  TYR A  13      13.612  -1.976 -18.206  0.00  0.00    +0.054 C 
BRANCH  92  93
ATOM     93  CG  TYR A  13      12.644  -2.575 -17.199  0.00  0.00    -0.020 A 
ATOM     94  CD2 TYR A  13      11.670  -1.797 -16.539  0.00  0.00    -0.001 A 
ATOM     95  CE2 TYR A  13      10.831  -2.399 -15.611  0.00  0.00    +0.036 A 
ATOM     96  CZ  TYR A  13      10.959  -3.771 -15.355  0.00  0.00    +0.134 A 
ATOM     97  CE1 TYR A  13      11.928  -4.553 -16.009  0.00  0.00    +0.036 A 
ATOM     98  CD1 TYR A  13      12.722  -3.934 -16.942  0.00  0.00    -0.001 A 
BRANCH  96  99
ATOM     99  OH  TYR A  13      10.122  -4.380 -14.435  0.00  0.00    -0.506 OA
ATOM    100  HH  TYR A  13      10.344  -5.343 -14.375  0.00  0.00    +0.292 HD
ENDBRANCH  96  99
ENDBRANCH  92  93
ENDBRANCH  89  92
ENDBRANCH  86  89
ENDBRANCH  84  85
BRANCH  84 101
ATOM    101  CB  LEU A  12       9.034  -1.409 -20.984  0.00  0.00    +0.029 C 
BRANCH 101 102
ATOM    102  CG  LEU A  12       7.952  -2.188 -21.843  0.00  0.00    +0.002 C 
ATOM    103  CD2 LEU A  12       6.674  -2.278 -20.988  0.00  0.00    +0.000 C 
ATOM    104  CD1 LEU A  12       7.710  -1.559 -23.173  0.00  0.00    +0.000 C 
ENDBRANCH 101 102
ENDBRANCH  84 101
ENDBRANCH  81  84
ENDBRANCH  79  80
ENDBRANCH  71  73
ENDBRANCH  69  71
ENDBRANCH  66  67
BRANCH  66 105
ATOM    105  CB  PHE A   9       8.763  -5.099 -17.897  0.00  0.00    +0.055 C 
BRANCH 105 106
ATOM    106  CG  PHE A   9       7.382  -4.753 -17.410  0.00  0.00    -0.020 A 
ATOM    107  CD2 PHE A   9       7.257  -4.122 -16.160  0.00  0.00    -0.004 A 
ATOM    108  CE2 PHE A   9       6.030  -3.814 -15.665  0.00  0.00    -0.000 A 
ATOM    109  CZ  PHE A   9       4.869  -4.136 -16.382  0.00  0.00    -0.000 A 
ATOM    110  CE1 PHE A   9       4.948  -4.722 -17.604  0.00  0.00    -0.000 A 
ATOM    111  CD1 PHE A   9       6.219  -5.038 -18.154  0.00  0.00    -0.004 A 
ENDBRANCH 105 106
ENDBRANCH  66 105
ENDBRANCH  63  66
ENDBRANCH  61  62
BRANCH  61 112
ATOM    112  CB  ASP A   8       8.253  -8.919 -22.505  0.00  0.00    +0.143 C 
BRANCH 112 113
ATOM    113  CG  ASP A   8       9.743  -8.962 -22.256  0.00  0.00    +0.367 C 
ATOM    114  OD2 ASP A   8      10.187  -8.740 -21.103  0.00  0.00    -0.246 OA
ATOM    115  OD1 ASP A   8      10.498  -9.172 -23.252  0.00  0.00    -0.246 OA
ENDBRANCH 112 113
ENDBRANCH  61 112
ENDBRANCH   3  61
TORSDOF 41
REMARK  Name = ../refined-set-2016/3tk2/3tk2_pocket.pdb
REMARK  130 active torsions:
REMARK  status: ('A' for Active; 'I' for Inactive)
REMARK    1  A    between atoms: _1  and  _3
REMARK    2  A    between atoms: _3  and  _4
REMARK    3  A    between atoms: _3  and  _6
REMARK    4  A    between atoms: _6  and  _7
REMARK    5  A    between atoms: _13  and  _15
REMARK    6  A    between atoms: _15  and  _16
REMARK    7  A    between atoms: _15  and  _18
REMARK    8  A    between atoms: _18  and  _19
REMARK    9  A    between atoms: _22  and  _24
REMARK   10  A    between atoms: _24  and  _25
REMARK   11  A    between atoms: _24  and  _27
REMARK   12  A    between atoms: _27  and  _28
REMARK   13  A    between atoms: _33  and  _34
REMARK   14  A    between atoms: _36  and  _38
REMARK   15  A    between atoms: _38  and  _39
REMARK   16  A    between atoms: _38  and  _41
REMARK   17  A    between atoms: _41  and  _42
REMARK   18  A    between atoms: _45  and  _47
REMARK   19  A    between atoms: _47  and  _48
REMARK   20  A    between atoms: _47  and  _50
REMARK   21  A    between atoms: _50  and  _51
REMARK   22  A    between atoms: _51  and  _52
REMARK   23  A    between atoms: _55  and  _57
REMARK   24  A    between atoms: _57  and  _58
REMARK   25  A    between atoms: _61  and  _63
REMARK   26  A    between atoms: _63  and  _64
REMARK   27  A    between atoms: _63  and  _66
REMARK   28  A    between atoms: _66  and  _67
REMARK   29  A    between atoms: _72  and  _73
REMARK   30  A    between atoms: _75  and  _77
REMARK   31  A    between atoms: _77  and  _78
REMARK   32  A    between atoms: _80  and  _82
REMARK   33  A    between atoms: _82  and  _83
REMARK   34  A    between atoms: _82  and  _85
REMARK   35  A    between atoms: _85  and  _86
REMARK   36  A    between atoms: _86  and  _87
REMARK   37  A    between atoms: _87  and  _88
REMARK   38  A    between atoms: _88  and  _89
REMARK   39  A    between atoms: _93  and  _95
REMARK   40  A    between atoms: _95  and  _96
REMARK   41  A    between atoms: _98  and  _100
REMARK   42  A    between atoms: _100  and  _101
REMARK   43  A    between atoms: _103  and  _105
REMARK   44  A    between atoms: _105  and  _106
REMARK   45  A    between atoms: _105  and  _108
REMARK   46  A    between atoms: _111  and  _113
REMARK   47  A    between atoms: _113  and  _114
REMARK   48  A    between atoms: _113  and  _116
REMARK   49  A    between atoms: _116  and  _117
REMARK   50  A    between atoms: _117  and  _118
REMARK   51  A    between atoms: _118  and  _119
REMARK   52  A    between atoms: _119  and  _120
REMARK   53  A    between atoms: _124  and  _126
REMARK   54  A    between atoms: _126  and  _127
REMARK   55  A    between atoms: _130  and  _132
REMARK   56  A    between atoms: _132  and  _133
REMARK   57  A    between atoms: _132  and  _135
REMARK   58  A    between atoms: _135  and  _136
REMARK   59  A    between atoms: _139  and  _141
REMARK   60  A    between atoms: _141  and  _142
REMARK   61  A    between atoms: _141  and  _144
REMARK   62  A    between atoms: _144  and  _145
REMARK   63  A    between atoms: _145  and  _146
REMARK   64  A    between atoms: _148  and  _150
REMARK   65  A    between atoms: _150  and  _151
REMARK   66  A    between atoms: _150  and  _153
REMARK   67  A    between atoms: _153  and  _154
REMARK   68  A    between atoms: _157  and  _159
REMARK   69  A    between atoms: _159  and  _160
REMARK   70  A    between atoms: _159  and  _162
REMARK   71  A    between atoms: _162  and  _163
REMARK   72  A    between atoms: _166  and  _168
REMARK   73  A    between atoms: _168  and  _169
REMARK   74  A    between atoms: _168  and  _171
REMARK   75  A    between atoms: _171  and  _172
REMARK   76  A    between atoms: _177  and  _178
REMARK   77  A    between atoms: _180  and  _182
REMARK   78  A    between atoms: _182  and  _183
REMARK   79  A    between atoms: _182  and  _185
REMARK   80  A    between atoms: _185  and  _186
REMARK   81  A    between atoms: _189  and  _191
REMARK   82  A    between atoms: _191  and  _192
REMARK   83  A    between atoms: _191  and  _194
REMARK   84  A    between atoms: _194  and  _195
REMARK   85  A    between atoms: _198  and  _200
REMARK   86  A    between atoms: _200  and  _201
REMARK   87  A    between atoms: _200  and  _203
REMARK   88  A    between atoms: _203  and  _204
REMARK   89  A    between atoms: _204  and  _205
REMARK   90  A    between atoms: _207  and  _209
REMARK   91  A    between atoms: _209  and  _210
REMARK   92  A    between atoms: _209  and  _212
REMARK   93  A    between atoms: _212  and  _213
REMARK   94  A    between atoms: _216  and  _218
REMARK   95  A    between atoms: _218  and  _219
REMARK   96  A    between atoms: _218  and  _221
REMARK   97  A    between atoms: _221  and  _222
REMARK   98  A    between atoms: _228  and  _230
REMARK   99  A    between atoms: _230  and  _231
REMARK  100  A    between atoms: _230  and  _233
REMARK  101  A    between atoms: _233  and  _234
REMARK  102  A    between atoms: _237  and  _239
REMARK  103  A    between atoms: _239  and  _240
REMARK  104  A    between atoms: _243  and  _245
REMARK  105  A    between atoms: _245  and  _246
REMARK  106  A    between atoms: _245  and  _248
REMARK  107  A    between atoms: _248  and  _249
REMARK  108  A    between atoms: _252  and  _254
REMARK  109  A    between atoms: _254  and  _255
REMARK  110  A    between atoms: _259  and  _260
REMARK  111  A    between atoms: _265  and  _267
REMARK  112  A    between atoms: _267  and  _268
REMARK  113  A    between atoms: _267  and  _270
REMARK  114  A    between atoms: _270  and  _271
REMARK  115  A    between atoms: _274  and  _276
REMARK  116  A    between atoms: _276  and  _277
REMARK  117  A    between atoms: _276  and  _279
REMARK  118  A    between atoms: _279  and  _280
REMARK  119  A    between atoms: _286  and  _288
REMARK  120  A    between atoms: _288  and  _289
REMARK  121  A    between atoms: _293  and  _294
REMARK  122  A    between atoms: _299  and  _301
REMARK  123  A    between atoms: _301  and  _302
REMARK  124  A    between atoms: _301  and  _304
REMARK  125  A    between atoms: _304  and  _305
REMARK  126  A    between atoms: _308  and  _310
REMARK  127  A    between atoms: _310  and  _311
REMARK  128  A    between atoms: _310  and  _313
REMARK  129  A    between atoms: _313  and  _314
REMARK  130  A    between atoms: _319  and  _320
REMARK                            x       y       z     vdW  Elec       q    Type
REMARK                         _______ _______ _______ _____ _____    ______ ____
ROOT
ATOM      1  O   HOH     1      13.015 -10.099 -22.534  0.00  0.00    +0.000 OA
ENDROOT
TORSDOF 0
REMARK  Name = ../refined-set-2016/3tk2/3tk2_pocket.pdb
REMARK  130 active torsions:
REMARK  status: ('A' for Active; 'I' for Inactive)
REMARK    1  A    between atoms: _1  and  _3
REMARK    2  A    between atoms: _3  and  _4
REMARK    3  A    between atoms: _3  and  _6
REMARK    4  A    between atoms: _6  and  _7
REMARK    5  A    between atoms: _13  and  _15
REMARK    6  A    between atoms: _15  and  _16
REMARK    7  A    between atoms: _15  and  _18
REMARK    8  A    between atoms: _18  and  _19
REMARK    9  A    between atoms: _22  and  _24
REMARK   10  A    between atoms: _24  and  _25
REMARK   11  A    between atoms: _24  and  _27
REMARK   12  A    between atoms: _27  and  _28
REMARK   13  A    between atoms: _33  and  _34
REMARK   14  A    between atoms: _36  and  _38
REMARK   15  A    between atoms: _38  and  _39
REMARK   16  A    between atoms: _38  and  _41
REMARK   17  A    between atoms: _41  and  _42
REMARK   18  A    between atoms: _45  and  _47
REMARK   19  A    between atoms: _47  and  _48
REMARK   20  A    between atoms: _47  and  _50
REMARK   21  A    between atoms: _50  and  _51
REMARK   22  A    between atoms: _51  and  _52
REMARK   23  A    between atoms: _55  and  _57
REMARK   24  A    between atoms: _57  and  _58
REMARK   25  A    between atoms: _61  and  _63
REMARK   26  A    between atoms: _63  and  _64
REMARK   27  A    between atoms: _63  and  _66
REMARK   28  A    between atoms: _66  and  _67
REMARK   29  A    between atoms: _72  and  _73
REMARK   30  A    between atoms: _75  and  _77
REMARK   31  A    between atoms: _77  and  _78
REMARK   32  A    between atoms: _80  and  _82
REMARK   33  A    between atoms: _82  and  _83
REMARK   34  A    between atoms: _82  and  _85
REMARK   35  A    between atoms: _85  and  _86
REMARK   36  A    between atoms: _86  and  _87
REMARK   37  A    between atoms: _87  and  _88
REMARK   38  A    between atoms: _88  and  _89
REMARK   39  A    between atoms: _93  and  _95
REMARK   40  A    between atoms: _95  and  _96
REMARK   41  A    between atoms: _98  and  _100
REMARK   42  A    between atoms: _100  and  _101
REMARK   43  A    between atoms: _103  and  _105
REMARK   44  A    between atoms: _105  and  _106
REMARK   45  A    between atoms: _105  and  _108
REMARK   46  A    between atoms: _111  and  _113
REMARK   47  A    between atoms: _113  and  _114
REMARK   48  A    between atoms: _113  and  _116
REMARK   49  A    between atoms: _116  and  _117
REMARK   50  A    between atoms: _117  and  _118
REMARK   51  A    between atoms: _118  and  _119
REMARK   52  A    between atoms: _119  and  _120
REMARK   53  A    between atoms: _124  and  _126
REMARK   54  A    between atoms: _126  and  _127
REMARK   55  A    between atoms: _130  and  _132
REMARK   56  A    between atoms: _132  and  _133
REMARK   57  A    between atoms: _132  and  _135
REMARK   58  A    between atoms: _135  and  _136
REMARK   59  A    between atoms: _139  and  _141
REMARK   60  A    between atoms: _141  and  _142
REMARK   61  A    between atoms: _141  and  _144
REMARK   62  A    between atoms: _144  and  _145
REMARK   63  A    between atoms: _145  and  _146
REMARK   64  A    between atoms: _148  and  _150
REMARK   65  A    between atoms: _150  and  _151
REMARK   66  A    between atoms: _150  and  _153
REMARK   67  A    between atoms: _153  and  _154
REMARK   68  A    between atoms: _157  and  _159
REMARK   69  A    between atoms: _159  and  _160
REMARK   70  A    between atoms: _159  and  _162
REMARK   71  A    between atoms: _162  and  _163
REMARK   72  A    between atoms: _166  and  _168
REMARK   73  A    between atoms: _168  and  _169
REMARK   74  A    between atoms: _168  and  _171
REMARK   75  A    between atoms: _171  and  _172
REMARK   76  A    between atoms: _177  and  _178
REMARK   77  A    between atoms: _180  and  _182
REMARK   78  A    between atoms: _182  and  _183
REMARK   79  A    between atoms: _182  and  _185
REMARK   80  A    between atoms: _185  and  _186
REMARK   81  A    between atoms: _189  and  _191
REMARK   82  A    between atoms: _191  and  _192
REMARK   83  A    between atoms: _191  and  _194
REMARK   84  A    between atoms: _194  and  _195
REMARK   85  A    between atoms: _198  and  _200
REMARK   86  A    between atoms: _200  and  _201
REMARK   87  A    between atoms: _200  and  _203
REMARK   88  A    between atoms: _203  and  _204
REMARK   89  A    between atoms: _204  and  _205
REMARK   90  A    between atoms: _207  and  _209
REMARK   91  A    between atoms: _209  and  _210
REMARK   92  A    between atoms: _209  and  _212
REMARK   93  A    between atoms: _212  and  _213
REMARK   94  A    between atoms: _216  and  _218
REMARK   95  A    between atoms: _218  and  _219
REMARK   96  A    between atoms: _218  and  _221
REMARK   97  A    between atoms: _221  and  _222
REMARK   98  A    between atoms: _228  and  _230
REMARK   99  A    between atoms: _230  and  _231
REMARK  100  A    between atoms: _230  and  _233
REMARK  101  A    between atoms: _233  and  _234
REMARK  102  A    between atoms: _237  and  _239
REMARK  103  A    between atoms: _239  and  _240
REMARK  104  A    between atoms: _243  and  _245
REMARK  105  A    between atoms: _245  and  _246
REMARK  106  A    between atoms: _245  and  _248
REMARK  107  A    between atoms: _248  and  _249
REMARK  108  A    between atoms: _252  and  _254
REMARK  109  A    between atoms: _254  and  _255
REMARK  110  A    between atoms: _259  and  _260
REMARK  111  A    between atoms: _265  and  _267
REMARK  112  A    between atoms: _267  and  _268
REMARK  113  A    between atoms: _267  and  _270
REMARK  114  A    between atoms: _270  and  _271
REMARK  115  A    between atoms: _274  and  _276
REMARK  116  A    between atoms: _276  and  _277
REMARK  117  A    between atoms: _276  and  _279
REMARK  118  A    between atoms: _279  and  _280
REMARK  119  A    between atoms: _286  and  _288
REMARK  120  A    between atoms: _288  and  _289
REMARK  121  A    between atoms: _293  and  _294
REMARK  122  A    between atoms: _299  and  _301
REMARK  123  A    between atoms: _301  and  _302
REMARK  124  A    between atoms: _301  and  _304
REMARK  125  A    between atoms: _304  and  _305
REMARK  126  A    between atoms: _308  and  _310
REMARK  127  A    between atoms: _310  and  _311
REMARK  128  A    between atoms: _310  and  _313
REMARK  129  A    between atoms: _313  and  _314
REMARK  130  A    between atoms: _319  and  _320
REMARK                            x       y       z     vdW  Elec       q    Type
REMARK                         _______ _______ _______ _____ _____    ______ ____
ROOT
ATOM      1  O   HOH     1      14.348 -10.730 -20.280  0.00  0.00    +0.000 OA
ENDROOT
TORSDOF 0
REMARK  Name = ../refined-set-2016/3tk2/3tk2_pocket.pdb
REMARK  130 active torsions:
REMARK  status: ('A' for Active; 'I' for Inactive)
REMARK    1  A    between atoms: _1  and  _3
REMARK    2  A    between atoms: _3  and  _4
REMARK    3  A    between atoms: _3  and  _6
REMARK    4  A    between atoms: _6  and  _7
REMARK    5  A    between atoms: _13  and  _15
REMARK    6  A    between atoms: _15  and  _16
REMARK    7  A    between atoms: _15  and  _18
REMARK    8  A    between atoms: _18  and  _19
REMARK    9  A    between atoms: _22  and  _24
REMARK   10  A    between atoms: _24  and  _25
REMARK   11  A    between atoms: _24  and  _27
REMARK   12  A    between atoms: _27  and  _28
REMARK   13  A    between atoms: _33  and  _34
REMARK   14  A    between atoms: _36  and  _38
REMARK   15  A    between atoms: _38  and  _39
REMARK   16  A    between atoms: _38  and  _41
REMARK   17  A    between atoms: _41  and  _42
REMARK   18  A    between atoms: _45  and  _47
REMARK   19  A    between atoms: _47  and  _48
REMARK   20  A    between atoms: _47  and  _50
REMARK   21  A    between atoms: _50  and  _51
REMARK   22  A    between atoms: _51  and  _52
REMARK   23  A    between atoms: _55  and  _57
REMARK   24  A    between atoms: _57  and  _58
REMARK   25  A    between atoms: _61  and  _63
REMARK   26  A    between atoms: _63  and  _64
REMARK   27  A    between atoms: _63  and  _66
REMARK   28  A    between atoms: _66  and  _67
REMARK   29  A    between atoms: _72  and  _73
REMARK   30  A    between atoms: _75  and  _77
REMARK   31  A    between atoms: _77  and  _78
REMARK   32  A    between atoms: _80  and  _82
REMARK   33  A    between atoms: _82  and  _83
REMARK   34  A    between atoms: _82  and  _85
REMARK   35  A    between atoms: _85  and  _86
REMARK   36  A    between atoms: _86  and  _87
REMARK   37  A    between atoms: _87  and  _88
REMARK   38  A    between atoms: _88  and  _89
REMARK   39  A    between atoms: _93  and  _95
REMARK   40  A    between atoms: _95  and  _96
REMARK   41  A    between atoms: _98  and  _100
REMARK   42  A    between atoms: _100  and  _101
REMARK   43  A    between atoms: _103  and  _105
REMARK   44  A    between atoms: _105  and  _106
REMARK   45  A    between atoms: _105  and  _108
REMARK   46  A    between atoms: _111  and  _113
REMARK   47  A    between atoms: _113  and  _114
REMARK   48  A    between atoms: _113  and  _116
REMARK   49  A    between atoms: _116  and  _117
REMARK   50  A    between atoms: _117  and  _118
REMARK   51  A    between atoms: _118  and  _119
REMARK   52  A    between atoms: _119  and  _120
REMARK   53  A    between atoms: _124  and  _126
REMARK   54  A    between atoms: _126  and  _127
REMARK   55  A    between atoms: _130  and  _132
REMARK   56  A    between atoms: _132  and  _133
REMARK   57  A    between atoms: _132  and  _135
REMARK   58  A    between atoms: _135  and  _136
REMARK   59  A    between atoms: _139  and  _141
REMARK   60  A    between atoms: _141  and  _142
REMARK   61  A    between atoms: _141  and  _144
REMARK   62  A    between atoms: _144  and  _145
REMARK   63  A    between atoms: _145  and  _146
REMARK   64  A    between atoms: _148  and  _150
REMARK   65  A    between atoms: _150  and  _151
REMARK   66  A    between atoms: _150  and  _153
REMARK   67  A    between atoms: _153  and  _154
REMARK   68  A    between atoms: _157  and  _159
REMARK   69  A    between atoms: _159  and  _160
REMARK   70  A    between atoms: _159  and  _162
REMARK   71  A    between atoms: _162  and  _163
REMARK   72  A    between atoms: _166  and  _168
REMARK   73  A    between atoms: _168  and  _169
REMARK   74  A    between atoms: _168  and  _171
REMARK   75  A    between atoms: _171  and  _172
REMARK   76  A    between atoms: _177  and  _178
REMARK   77  A    between atoms: _180  and  _182
REMARK   78  A    between atoms: _182  and  _183
REMARK   79  A    between atoms: _182  and  _185
REMARK   80  A    between atoms: _185  and  _186
REMARK   81  A    between atoms: _189  and  _191
REMARK   82  A    between atoms: _191  and  _192
REMARK   83  A    between atoms: _191  and  _194
REMARK   84  A    between atoms: _194  and  _195
REMARK   85  A    between atoms: _198  and  _200
REMARK   86  A    between atoms: _200  and  _201
REMARK   87  A    between atoms: _200  and  _203
REMARK   88  A    between atoms: _203  and  _204
REMARK   89  A    between atoms: _204  and  _205
REMARK   90  A    between atoms: _207  and  _209
REMARK   91  A    between atoms: _209  and  _210
REMARK   92  A    between atoms: _209  and  _212
REMARK   93  A    between atoms: _212  and  _213
REMARK   94  A    between atoms: _216  and  _218
REMARK   95  A    between atoms: _218  and  _219
REMARK   96  A    between atoms: _218  and  _221
REMARK   97  A    between atoms: _221  and  _222
REMARK   98  A    between atoms: _228  and  _230
REMARK   99  A    between atoms: _230  and  _231
REMARK  100  A    between atoms: _230  and  _233
REMARK  101  A    between atoms: _233  and  _234
REMARK  102  A    between atoms: _237  and  _239
REMARK  103  A    between atoms: _239  and  _240
REMARK  104  A    between atoms: _243  and  _245
REMARK  105  A    between atoms: _245  and  _246
REMARK  106  A    between atoms: _245  and  _248
REMARK  107  A    between atoms: _248  and  _249
REMARK  108  A    between atoms: _252  and  _254
REMARK  109  A    between atoms: _254  and  _255
REMARK  110  A    between atoms: _259  and  _260
REMARK  111  A    between atoms: _265  and  _267
REMARK  112  A    between atoms: _267  and  _268
REMARK  113  A    between atoms: _267  and  _270
REMARK  114  A    between atoms: _270  and  _271
REMARK  115  A    between atoms: _274  and  _276
REMARK  116  A    between atoms: _276  and  _277
REMARK  117  A    between atoms: _276  and  _279
REMARK  118  A    between atoms: _279  and  _280
REMARK  119  A    between atoms: _286  and  _288
REMARK  120  A    between atoms: _288  and  _289
REMARK  121  A    between atoms: _293  and  _294
REMARK  122  A    between atoms: _299  and  _301
REMARK  123  A    between atoms: _301  and  _302
REMARK  124  A    between atoms: _301  and  _304
REMARK  125  A    between atoms: _304  and  _305
REMARK  126  A    between atoms: _308  and  _310
REMARK  127  A    between atoms: _310  and  _311
REMARK  128  A    between atoms: _310  and  _313
REMARK  129  A    between atoms: _313  and  _314
REMARK  130  A    between atoms: _319  and  _320
REMARK                            x       y       z     vdW  Elec       q    Type
REMARK                         _______ _______ _______ _____ _____    ______ ____
ROOT
ATOM      1  O   HOH     1       5.707 -11.915 -23.475  0.00  0.00    +0.000 OA
ENDROOT
TORSDOF 0
REMARK  Name = ../refined-set-2016/3tk2/3tk2_pocket.pdb
REMARK  130 active torsions:
REMARK  status: ('A' for Active; 'I' for Inactive)
REMARK    1  A    between atoms: _1  and  _3
REMARK    2  A    between atoms: _3  and  _4
REMARK    3  A    between atoms: _3  and  _6
REMARK    4  A    between atoms: _6  and  _7
REMARK    5  A    between atoms: _13  and  _15
REMARK    6  A    between atoms: _15  and  _16
REMARK    7  A    between atoms: _15  and  _18
REMARK    8  A    between atoms: _18  and  _19
REMARK    9  A    between atoms: _22  and  _24
REMARK   10  A    between atoms: _24  and  _25
REMARK   11  A    between atoms: _24  and  _27
REMARK   12  A    between atoms: _27  and  _28
REMARK   13  A    between atoms: _33  and  _34
REMARK   14  A    between atoms: _36  and  _38
REMARK   15  A    between atoms: _38  and  _39
REMARK   16  A    between atoms: _38  and  _41
REMARK   17  A    between atoms: _41  and  _42
REMARK   18  A    between atoms: _45  and  _47
REMARK   19  A    between atoms: _47  and  _48
REMARK   20  A    between atoms: _47  and  _50
REMARK   21  A    between atoms: _50  and  _51
REMARK   22  A    between atoms: _51  and  _52
REMARK   23  A    between atoms: _55  and  _57
REMARK   24  A    between atoms: _57  and  _58
REMARK   25  A    between atoms: _61  and  _63
REMARK   26  A    between atoms: _63  and  _64
REMARK   27  A    between atoms: _63  and  _66
REMARK   28  A    between atoms: _66  and  _67
REMARK   29  A    between atoms: _72  and  _73
REMARK   30  A    between atoms: _75  and  _77
REMARK   31  A    between atoms: _77  and  _78
REMARK   32  A    between atoms: _80  and  _82
REMARK   33  A    between atoms: _82  and  _83
REMARK   34  A    between atoms: _82  and  _85
REMARK   35  A    between atoms: _85  and  _86
REMARK   36  A    between atoms: _86  and  _87
REMARK   37  A    between atoms: _87  and  _88
REMARK   38  A    between atoms: _88  and  _89
REMARK   39  A    between atoms: _93  and  _95
REMARK   40  A    between atoms: _95  and  _96
REMARK   41  A    between atoms: _98  and  _100
REMARK   42  A    between atoms: _100  and  _101
REMARK   43  A    between atoms: _103  and  _105
REMARK   44  A    between atoms: _105  and  _106
REMARK   45  A    between atoms: _105  and  _108
REMARK   46  A    between atoms: _111  and  _113
REMARK   47  A    between atoms: _113  and  _114
REMARK   48  A    between atoms: _113  and  _116
REMARK   49  A    between atoms: _116  and  _117
REMARK   50  A    between atoms: _117  and  _118
REMARK   51  A    between atoms: _118  and  _119
REMARK   52  A    between atoms: _119  and  _120
REMARK   53  A    between atoms: _124  and  _126
REMARK   54  A    between atoms: _126  and  _127
REMARK   55  A    between atoms: _130  and  _132
REMARK   56  A    between atoms: _132  and  _133
REMARK   57  A    between atoms: _132  and  _135
REMARK   58  A    between atoms: _135  and  _136
REMARK   59  A    between atoms: _139  and  _141
REMARK   60  A    between atoms: _141  and  _142
REMARK   61  A    between atoms: _141  and  _144
REMARK   62  A    between atoms: _144  and  _145
REMARK   63  A    between atoms: _145  and  _146
REMARK   64  A    between atoms: _148  and  _150
REMARK   65  A    between atoms: _150  and  _151
REMARK   66  A    between atoms: _150  and  _153
REMARK   67  A    between atoms: _153  and  _154
REMARK   68  A    between atoms: _157  and  _159
REMARK   69  A    between atoms: _159  and  _160
REMARK   70  A    between atoms: _159  and  _162
REMARK   71  A    between atoms: _162  and  _163
REMARK   72  A    between atoms: _166  and  _168
REMARK   73  A    between atoms: _168  and  _169
REMARK   74  A    between atoms: _168  and  _171
REMARK   75  A    between atoms: _171  and  _172
REMARK   76  A    between atoms: _177  and  _178
REMARK   77  A    between atoms: _180  and  _182
REMARK   78  A    between atoms: _182  and  _183
REMARK   79  A    between atoms: _182  and  _185
REMARK   80  A    between atoms: _185  and  _186
REMARK   81  A    between atoms: _189  and  _191
REMARK   82  A    between atoms: _191  and  _192
REMARK   83  A    between atoms: _191  and  _194
REMARK   84  A    between atoms: _194  and  _195
REMARK   85  A    between atoms: _198  and  _200
REMARK   86  A    between atoms: _200  and  _201
REMARK   87  A    between atoms: _200  and  _203
REMARK   88  A    between atoms: _203  and  _204
REMARK   89  A    between atoms: _204  and  _205
REMARK   90  A    between atoms: _207  and  _209
REMARK   91  A    between atoms: _209  and  _210
REMARK   92  A    between atoms: _209  and  _212
REMARK   93  A    between atoms: _212  and  _213
REMARK   94  A    between atoms: _216  and  _218
REMARK   95  A    between atoms: _218  and  _219
REMARK   96  A    between atoms: _218  and  _221
REMARK   97  A    between atoms: _221  and  _222
REMARK   98  A    between atoms: _228  and  _230
REMARK   99  A    between atoms: _230  and  _231
REMARK  100  A    between atoms: _230  and  _233
REMARK  101  A    between atoms: _233  and  _234
REMARK  102  A    between atoms: _237  and  _239
REMARK  103  A    between atoms: _239  and  _240
REMARK  104  A    between atoms: _243  and  _245
REMARK  105  A    between atoms: _245  and  _246
REMARK  106  A    between atoms: _245  and  _248
REMARK  107  A    between atoms: _248  and  _249
REMARK  108  A    between atoms: _252  and  _254
REMARK  109  A    between atoms: _254  and  _255
REMARK  110  A    between atoms: _259  and  _260
REMARK  111  A    between atoms: _265  and  _267
REMARK  112  A    between atoms: _267  and  _268
REMARK  113  A    between atoms: _267  and  _270
REMARK  114  A    between atoms: _270  and  _271
REMARK  115  A    between atoms: _274  and  _276
REMARK  116  A    between atoms: _276  and  _277
REMARK  117  A    between atoms: _276  and  _279
REMARK  118  A    between atoms: _279  and  _280
REMARK  119  A    between atoms: _286  and  _288
REMARK  120  A    between atoms: _288  and  _289
REMARK  121  A    between atoms: _293  and  _294
REMARK  122  A    between atoms: _299  and  _301
REMARK  123  A    between atoms: _301  and  _302
REMARK  124  A    between atoms: _301  and  _304
REMARK  125  A    between atoms: _304  and  _305
REMARK  126  A    between atoms: _308  and  _310
REMARK  127  A    between atoms: _310  and  _311
REMARK  128  A    between atoms: _310  and  _313
REMARK  129  A    between atoms: _313  and  _314
REMARK  130  A    between atoms: _319  and  _320
REMARK                            x       y       z     vdW  Elec       q    Type
REMARK                         _______ _______ _______ _____ _____    ______ ____
ROOT
ATOM      1  O   HOH     1      10.134  -7.023 -14.416  0.00  0.00    +0.000 OA
ENDROOT
TORSDOF 0
REMARK  Name = ../refined-set-2016/3tk2/3tk2_pocket.pdb
REMARK  130 active torsions:
REMARK  status: ('A' for Active; 'I' for Inactive)
REMARK    1  A    between atoms: _1  and  _3
REMARK    2  A    between atoms: _3  and  _4
REMARK    3  A    between atoms: _3  and  _6
REMARK    4  A    between atoms: _6  and  _7
REMARK    5  A    between atoms: _13  and  _15
REMARK    6  A    between atoms: _15  and  _16
REMARK    7  A    between atoms: _15  and  _18
REMARK    8  A    between atoms: _18  and  _19
REMARK    9  A    between atoms: _22  and  _24
REMARK   10  A    between atoms: _24  and  _25
REMARK   11  A    between atoms: _24  and  _27
REMARK   12  A    between atoms: _27  and  _28
REMARK   13  A    between atoms: _33  and  _34
REMARK   14  A    between atoms: _36  and  _38
REMARK   15  A    between atoms: _38  and  _39
REMARK   16  A    between atoms: _38  and  _41
REMARK   17  A    between atoms: _41  and  _42
REMARK   18  A    between atoms: _45  and  _47
REMARK   19  A    between atoms: _47  and  _48
REMARK   20  A    between atoms: _47  and  _50
REMARK   21  A    between atoms: _50  and  _51
REMARK   22  A    between atoms: _51  and  _52
REMARK   23  A    between atoms: _55  and  _57
REMARK   24  A    between atoms: _57  and  _58
REMARK   25  A    between atoms: _61  and  _63
REMARK   26  A    between atoms: _63  and  _64
REMARK   27  A    between atoms: _63  and  _66
REMARK   28  A    between atoms: _66  and  _67
REMARK   29  A    between atoms: _72  and  _73
REMARK   30  A    between atoms: _75  and  _77
REMARK   31  A    between atoms: _77  and  _78
REMARK   32  A    between atoms: _80  and  _82
REMARK   33  A    between atoms: _82  and  _83
REMARK   34  A    between atoms: _82  and  _85
REMARK   35  A    between atoms: _85  and  _86
REMARK   36  A    between atoms: _86  and  _87
REMARK   37  A    between atoms: _87  and  _88
REMARK   38  A    between atoms: _88  and  _89
REMARK   39  A    between atoms: _93  and  _95
REMARK   40  A    between atoms: _95  and  _96
REMARK   41  A    between atoms: _98  and  _100
REMARK   42  A    between atoms: _100  and  _101
REMARK   43  A    between atoms: _103  and  _105
REMARK   44  A    between atoms: _105  and  _106
REMARK   45  A    between atoms: _105  and  _108
REMARK   46  A    between atoms: _111  and  _113
REMARK   47  A    between atoms: _113  and  _114
REMARK   48  A    between atoms: _113  and  _116
REMARK   49  A    between atoms: _116  and  _117
REMARK   50  A    between atoms: _117  and  _118
REMARK   51  A    between atoms: _118  and  _119
REMARK   52  A    between atoms: _119  and  _120
REMARK   53  A    between atoms: _124  and  _126
REMARK   54  A    between atoms: _126  and  _127
REMARK   55  A    between atoms: _130  and  _132
REMARK   56  A    between atoms: _132  and  _133
REMARK   57  A    between atoms: _132  and  _135
REMARK   58  A    between atoms: _135  and  _136
REMARK   59  A    between atoms: _139  and  _141
REMARK   60  A    between atoms: _141  and  _142
REMARK   61  A    between atoms: _141  and  _144
REMARK   62  A    between atoms: _144  and  _145
REMARK   63  A    between atoms: _145  and  _146
REMARK   64  A    between atoms: _148  and  _150
REMARK   65  A    between atoms: _150  and  _151
REMARK   66  A    between atoms: _150  and  _153
REMARK   67  A    between atoms: _153  and  _154
REMARK   68  A    between atoms: _157  and  _159
REMARK   69  A    between atoms: _159  and  _160
REMARK   70  A    between atoms: _159  and  _162
REMARK   71  A    between atoms: _162  and  _163
REMARK   72  A    between atoms: _166  and  _168
REMARK   73  A    between atoms: _168  and  _169
REMARK   74  A    between atoms: _168  and  _171
REMARK   75  A    between atoms: _171  and  _172
REMARK   76  A    between atoms: _177  and  _178
REMARK   77  A    between atoms: _180  and  _182
REMARK   78  A    between atoms: _182  and  _183
REMARK   79  A    between atoms: _182  and  _185
REMARK   80  A    between atoms: _185  and  _186
REMARK   81  A    between atoms: _189  and  _191
REMARK   82  A    between atoms: _191  and  _192
REMARK   83  A    between atoms: _191  and  _194
REMARK   84  A    between atoms: _194  and  _195
REMARK   85  A    between atoms: _198  and  _200
REMARK   86  A    between atoms: _200  and  _201
REMARK   87  A    between atoms: _200  and  _203
REMARK   88  A    between atoms: _203  and  _204
REMARK   89  A    between atoms: _204  and  _205
REMARK   90  A    between atoms: _207  and  _209
REMARK   91  A    between atoms: _209  and  _210
REMARK   92  A    between atoms: _209  and  _212
REMARK   93  A    between atoms: _212  and  _213
REMARK   94  A    between atoms: _216  and  _218
REMARK   95  A    between atoms: _218  and  _219
REMARK   96  A    between atoms: _218  and  _221
REMARK   97  A    between atoms: _221  and  _222
REMARK   98  A    between atoms: _228  and  _230
REMARK   99  A    between atoms: _230  and  _231
REMARK  100  A    between atoms: _230  and  _233
REMARK  101  A    between atoms: _233  and  _234
REMARK  102  A    between atoms: _237  and  _239
REMARK  103  A    between atoms: _239  and  _240
REMARK  104  A    between atoms: _243  and  _245
REMARK  105  A    between atoms: _245  and  _246
REMARK  106  A    between atoms: _245  and  _248
REMARK  107  A    between atoms: _248  and  _249
REMARK  108  A    between atoms: _252  and  _254
REMARK  109  A    between atoms: _254  and  _255
REMARK  110  A    between atoms: _259  and  _260
REMARK  111  A    between atoms: _265  and  _267
REMARK  112  A    between atoms: _267  and  _268
REMARK  113  A    between atoms: _267  and  _270
REMARK  114  A    between atoms: _270  and  _271
REMARK  115  A    between atoms: _274  and  _276
REMARK  116  A    between atoms: _276  and  _277
REMARK  117  A    between atoms: _276  and  _279
REMARK  118  A    between atoms: _279  and  _280
REMARK  119  A    between atoms: _286  and  _288
REMARK  120  A    between atoms: _288  and  _289
REMARK  121  A    between atoms: _293  and  _294
REMARK  122  A    between atoms: _299  and  _301
REMARK  123  A    between atoms: _301  and  _302
REMARK  124  A    between atoms: _301  and  _304
REMARK  125  A    between atoms: _304  and  _305
REMARK  126  A    between atoms: _308  and  _310
REMARK  127  A    between atoms: _310  and  _311
REMARK  128  A    between atoms: _310  and  _313
REMARK  129  A    between atoms: _313  and  _314
REMARK  130  A    between atoms: _319  and  _320
REMARK                            x       y       z     vdW  Elec       q    Type
REMARK                         _______ _______ _______ _____ _____    ______ ____
ROOT
ATOM      1  O   HOH     1      -0.721 -13.671 -10.895  0.00  0.00    +0.000 OA
ENDROOT
TORSDOF 0
REMARK  Name = ../refined-set-2016/3tk2/3tk2_pocket.pdb
REMARK  130 active torsions:
REMARK  status: ('A' for Active; 'I' for Inactive)
REMARK    1  A    between atoms: _1  and  _3
REMARK    2  A    between atoms: _3  and  _4
REMARK    3  A    between atoms: _3  and  _6
REMARK    4  A    between atoms: _6  and  _7
REMARK    5  A    between atoms: _13  and  _15
REMARK    6  A    between atoms: _15  and  _16
REMARK    7  A    between atoms: _15  and  _18
REMARK    8  A    between atoms: _18  and  _19
REMARK    9  A    between atoms: _22  and  _24
REMARK   10  A    between atoms: _24  and  _25
REMARK   11  A    between atoms: _24  and  _27
REMARK   12  A    between atoms: _27  and  _28
REMARK   13  A    between atoms: _33  and  _34
REMARK   14  A    between atoms: _36  and  _38
REMARK   15  A    between atoms: _38  and  _39
REMARK   16  A    between atoms: _38  and  _41
REMARK   17  A    between atoms: _41  and  _42
REMARK   18  A    between atoms: _45  and  _47
REMARK   19  A    between atoms: _47  and  _48
REMARK   20  A    between atoms: _47  and  _50
REMARK   21  A    between atoms: _50  and  _51
REMARK   22  A    between atoms: _51  and  _52
REMARK   23  A    between atoms: _55  and  _57
REMARK   24  A    between atoms: _57  and  _58
REMARK   25  A    between atoms: _61  and  _63
REMARK   26  A    between atoms: _63  and  _64
REMARK   27  A    between atoms: _63  and  _66
REMARK   28  A    between atoms: _66  and  _67
REMARK   29  A    between atoms: _72  and  _73
REMARK   30  A    between atoms: _75  and  _77
REMARK   31  A    between atoms: _77  and  _78
REMARK   32  A    between atoms: _80  and  _82
REMARK   33  A    between atoms: _82  and  _83
REMARK   34  A    between atoms: _82  and  _85
REMARK   35  A    between atoms: _85  and  _86
REMARK   36  A    between atoms: _86  and  _87
REMARK   37  A    between atoms: _87  and  _88
REMARK   38  A    between atoms: _88  and  _89
REMARK   39  A    between atoms: _93  and  _95
REMARK   40  A    between atoms: _95  and  _96
REMARK   41  A    between atoms: _98  and  _100
REMARK   42  A    between atoms: _100  and  _101
REMARK   43  A    between atoms: _103  and  _105
REMARK   44  A    between atoms: _105  and  _106
REMARK   45  A    between atoms: _105  and  _108
REMARK   46  A    between atoms: _111  and  _113
REMARK   47  A    between atoms: _113  and  _114
REMARK   48  A    between atoms: _113  and  _116
REMARK   49  A    between atoms: _116  and  _117
REMARK   50  A    between atoms: _117  and  _118
REMARK   51  A    between atoms: _118  and  _119
REMARK   52  A    between atoms: _119  and  _120
REMARK   53  A    between atoms: _124  and  _126
REMARK   54  A    between atoms: _126  and  _127
REMARK   55  A    between atoms: _130  and  _132
REMARK   56  A    between atoms: _132  and  _133
REMARK   57  A    between atoms: _132  and  _135
REMARK   58  A    between atoms: _135  and  _136
REMARK   59  A    between atoms: _139  and  _141
REMARK   60  A    between atoms: _141  and  _142
REMARK   61  A    between atoms: _141  and  _144
REMARK   62  A    between atoms: _144  and  _145
REMARK   63  A    between atoms: _145  and  _146
REMARK   64  A    between atoms: _148  and  _150
REMARK   65  A    between atoms: _150  and  _151
REMARK   66  A    between atoms: _150  and  _153
REMARK   67  A    between atoms: _153  and  _154
REMARK   68  A    between atoms: _157  and  _159
REMARK   69  A    between atoms: _159  and  _160
REMARK   70  A    between atoms: _159  and  _162
REMARK   71  A    between atoms: _162  and  _163
REMARK   72  A    between atoms: _166  and  _168
REMARK   73  A    between atoms: _168  and  _169
REMARK   74  A    between atoms: _168  and  _171
REMARK   75  A    between atoms: _171  and  _172
REMARK   76  A    between atoms: _177  and  _178
REMARK   77  A    between atoms: _180  and  _182
REMARK   78  A    between atoms: _182  and  _183
REMARK   79  A    between atoms: _182  and  _185
REMARK   80  A    between atoms: _185  and  _186
REMARK   81  A    between atoms: _189  and  _191
REMARK   82  A    between atoms: _191  and  _192
REMARK   83  A    between atoms: _191  and  _194
REMARK   84  A    between atoms: _194  and  _195
REMARK   85  A    between atoms: _198  and  _200
REMARK   86  A    between atoms: _200  and  _201
REMARK   87  A    between atoms: _200  and  _203
REMARK   88  A    between atoms: _203  and  _204
REMARK   89  A    between atoms: _204  and  _205
REMARK   90  A    between atoms: _207  and  _209
REMARK   91  A    between atoms: _209  and  _210
REMARK   92  A    between atoms: _209  and  _212
REMARK   93  A    between atoms: _212  and  _213
REMARK   94  A    between atoms: _216  and  _218
REMARK   95  A    between atoms: _218  and  _219
REMARK   96  A    between atoms: _218  and  _221
REMARK   97  A    between atoms: _221  and  _222
REMARK   98  A    between atoms: _228  and  _230
REMARK   99  A    between atoms: _230  and  _231
REMARK  100  A    between atoms: _230  and  _233
REMARK  101  A    between atoms: _233  and  _234
REMARK  102  A    between atoms: _237  and  _239
REMARK  103  A    between atoms: _239  and  _240
REMARK  104  A    between atoms: _243  and  _245
REMARK  105  A    between atoms: _245  and  _246
REMARK  106  A    between atoms: _245  and  _248
REMARK  107  A    between atoms: _248  and  _249
REMARK  108  A    between atoms: _252  and  _254
REMARK  109  A    between atoms: _254  and  _255
REMARK  110  A    between atoms: _259  and  _260
REMARK  111  A    between atoms: _265  and  _267
REMARK  112  A    between atoms: _267  and  _268
REMARK  113  A    between atoms: _267  and  _270
REMARK  114  A    between atoms: _270  and  _271
REMARK  115  A    between atoms: _274  and  _276
REMARK  116  A    between atoms: _276  and  _277
REMARK  117  A    between atoms: _276  and  _279
REMARK  118  A    between atoms: _279  and  _280
REMARK  119  A    between atoms: _286  and  _288
REMARK  120  A    between atoms: _288  and  _289
REMARK  121  A    between atoms: _293  and  _294
REMARK  122  A    between atoms: _299  and  _301
REMARK  123  A    between atoms: _301  and  _302
REMARK  124  A    between atoms: _301  and  _304
REMARK  125  A    between atoms: _304  and  _305
REMARK  126  A    between atoms: _308  and  _310
REMARK  127  A    between atoms: _310  and  _311
REMARK  128  A    between atoms: _310  and  _313
REMARK  129  A    between atoms: _313  and  _314
REMARK  130  A    between atoms: _319  and  _320
REMARK                            x       y       z     vdW  Elec       q    Type
REMARK                         _______ _______ _______ _____ _____    ______ ____
ROOT
ATOM      1  O   HOH     1       5.002 -11.448 -13.445  0.00  0.00    +0.000 OA
ENDROOT
TORSDOF 0
REMARK  Name = ../refined-set-2016/3tk2/3tk2_pocket.pdb
REMARK  130 active torsions:
REMARK  status: ('A' for Active; 'I' for Inactive)
REMARK    1  A    between atoms: _1  and  _3
REMARK    2  A    between atoms: _3  and  _4
REMARK    3  A    between atoms: _3  and  _6
REMARK    4  A    between atoms: _6  and  _7
REMARK    5  A    between atoms: _13  and  _15
REMARK    6  A    between atoms: _15  and  _16
REMARK    7  A    between atoms: _15  and  _18
REMARK    8  A    between atoms: _18  and  _19
REMARK    9  A    between atoms: _22  and  _24
REMARK   10  A    between atoms: _24  and  _25
REMARK   11  A    between atoms: _24  and  _27
REMARK   12  A    between atoms: _27  and  _28
REMARK   13  A    between atoms: _33  and  _34
REMARK   14  A    between atoms: _36  and  _38
REMARK   15  A    between atoms: _38  and  _39
REMARK   16  A    between atoms: _38  and  _41
REMARK   17  A    between atoms: _41  and  _42
REMARK   18  A    between atoms: _45  and  _47
REMARK   19  A    between atoms: _47  and  _48
REMARK   20  A    between atoms: _47  and  _50
REMARK   21  A    between atoms: _50  and  _51
REMARK   22  A    between atoms: _51  and  _52
REMARK   23  A    between atoms: _55  and  _57
REMARK   24  A    between atoms: _57  and  _58
REMARK   25  A    between atoms: _61  and  _63
REMARK   26  A    between atoms: _63  and  _64
REMARK   27  A    between atoms: _63  and  _66
REMARK   28  A    between atoms: _66  and  _67
REMARK   29  A    between atoms: _72  and  _73
REMARK   30  A    between atoms: _75  and  _77
REMARK   31  A    between atoms: _77  and  _78
REMARK   32  A    between atoms: _80  and  _82
REMARK   33  A    between atoms: _82  and  _83
REMARK   34  A    between atoms: _82  and  _85
REMARK   35  A    between atoms: _85  and  _86
REMARK   36  A    between atoms: _86  and  _87
REMARK   37  A    between atoms: _87  and  _88
REMARK   38  A    between atoms: _88  and  _89
REMARK   39  A    between atoms: _93  and  _95
REMARK   40  A    between atoms: _95  and  _96
REMARK   41  A    between atoms: _98  and  _100
REMARK   42  A    between atoms: _100  and  _101
REMARK   43  A    between atoms: _103  and  _105
REMARK   44  A    between atoms: _105  and  _106
REMARK   45  A    between atoms: _105  and  _108
REMARK   46  A    between atoms: _111  and  _113
REMARK   47  A    between atoms: _113  and  _114
REMARK   48  A    between atoms: _113  and  _116
REMARK   49  A    between atoms: _116  and  _117
REMARK   50  A    between atoms: _117  and  _118
REMARK   51  A    between atoms: _118  and  _119
REMARK   52  A    between atoms: _119  and  _120
REMARK   53  A    between atoms: _124  and  _126
REMARK   54  A    between atoms: _126  and  _127
REMARK   55  A    between atoms: _130  and  _132
REMARK   56  A    between atoms: _132  and  _133
REMARK   57  A    between atoms: _132  and  _135
REMARK   58  A    between atoms: _135  and  _136
REMARK   59  A    between atoms: _139  and  _141
REMARK   60  A    between atoms: _141  and  _142
REMARK   61  A    between atoms: _141  and  _144
REMARK   62  A    between atoms: _144  and  _145
REMARK   63  A    between atoms: _145  and  _146
REMARK   64  A    between atoms: _148  and  _150
REMARK   65  A    between atoms: _150  and  _151
REMARK   66  A    between atoms: _150  and  _153
REMARK   67  A    between atoms: _153  and  _154
REMARK   68  A    between atoms: _157  and  _159
REMARK   69  A    between atoms: _159  and  _160
REMARK   70  A    between atoms: _159  and  _162
REMARK   71  A    between atoms: _162  and  _163
REMARK   72  A    between atoms: _166  and  _168
REMARK   73  A    between atoms: _168  and  _169
REMARK   74  A    between atoms: _168  and  _171
REMARK   75  A    between atoms: _171  and  _172
REMARK   76  A    between atoms: _177  and  _178
REMARK   77  A    between atoms: _180  and  _182
REMARK   78  A    between atoms: _182  and  _183
REMARK   79  A    between atoms: _182  and  _185
REMARK   80  A    between atoms: _185  and  _186
REMARK   81  A    between atoms: _189  and  _191
REMARK   82  A    between atoms: _191  and  _192
REMARK   83  A    between atoms: _191  and  _194
REMARK   84  A    between atoms: _194  and  _195
REMARK   85  A    between atoms: _198  and  _200
REMARK   86  A    between atoms: _200  and  _201
REMARK   87  A    between atoms: _200  and  _203
REMARK   88  A    between atoms: _203  and  _204
REMARK   89  A    between atoms: _204  and  _205
REMARK   90  A    between atoms: _207  and  _209
REMARK   91  A    between atoms: _209  and  _210
REMARK   92  A    between atoms: _209  and  _212
REMARK   93  A    between atoms: _212  and  _213
REMARK   94  A    between atoms: _216  and  _218
REMARK   95  A    between atoms: _218  and  _219
REMARK   96  A    between atoms: _218  and  _221
REMARK   97  A    between atoms: _221  and  _222
REMARK   98  A    between atoms: _228  and  _230
REMARK   99  A    between atoms: _230  and  _231
REMARK  100  A    between atoms: _230  and  _233
REMARK  101  A    between atoms: _233  and  _234
REMARK  102  A    between atoms: _237  and  _239
REMARK  103  A    between atoms: _239  and  _240
REMARK  104  A    between atoms: _243  and  _245
REMARK  105  A    between atoms: _245  and  _246
REMARK  106  A    between atoms: _245  and  _248
REMARK  107  A    between atoms: _248  and  _249
REMARK  108  A    between atoms: _252  and  _254
REMARK  109  A    between atoms: _254  and  _255
REMARK  110  A    between atoms: _259  and  _260
REMARK  111  A    between atoms: _265  and  _267
REMARK  112  A    between atoms: _267  and  _268
REMARK  113  A    between atoms: _267  and  _270
REMARK  114  A    between atoms: _270  and  _271
REMARK  115  A    between atoms: _274  and  _276
REMARK  116  A    between atoms: _276  and  _277
REMARK  117  A    between atoms: _276  and  _279
REMARK  118  A    between atoms: _279  and  _280
REMARK  119  A    between atoms: _286  and  _288
REMARK  120  A    between atoms: _288  and  _289
REMARK  121  A    between atoms: _293  and  _294
REMARK  122  A    between atoms: _299  and  _301
REMARK  123  A    between atoms: _301  and  _302
REMARK  124  A    between atoms: _301  and  _304
REMARK  125  A    between atoms: _304  and  _305
REMARK  126  A    between atoms: _308  and  _310
REMARK  127  A    between atoms: _310  and  _311
REMARK  128  A    between atoms: _310  and  _313
REMARK  129  A    between atoms: _313  and  _314
REMARK  130  A    between atoms: _319  and  _320
REMARK                            x       y       z     vdW  Elec       q    Type
REMARK                         _______ _______ _______ _____ _____    ______ ____
ROOT
ATOM      1  O   HOH     1      11.059 -11.396 -13.238  0.00  0.00    +0.000 OA
ENDROOT
TORSDOF 0
REMARK  Name = ../refined-set-2016/3tk2/3tk2_pocket.pdb
REMARK  130 active torsions:
REMARK  status: ('A' for Active; 'I' for Inactive)
REMARK    1  A    between atoms: _1  and  _3
REMARK    2  A    between atoms: _3  and  _4
REMARK    3  A    between atoms: _3  and  _6
REMARK    4  A    between atoms: _6  and  _7
REMARK    5  A    between atoms: _13  and  _15
REMARK    6  A    between atoms: _15  and  _16
REMARK    7  A    between atoms: _15  and  _18
REMARK    8  A    between atoms: _18  and  _19
REMARK    9  A    between atoms: _22  and  _24
REMARK   10  A    between atoms: _24  and  _25
REMARK   11  A    between atoms: _24  and  _27
REMARK   12  A    between atoms: _27  and  _28
REMARK   13  A    between atoms: _33  and  _34
REMARK   14  A    between atoms: _36  and  _38
REMARK   15  A    between atoms: _38  and  _39
REMARK   16  A    between atoms: _38  and  _41
REMARK   17  A    between atoms: _41  and  _42
REMARK   18  A    between atoms: _45  and  _47
REMARK   19  A    between atoms: _47  and  _48
REMARK   20  A    between atoms: _47  and  _50
REMARK   21  A    between atoms: _50  and  _51
REMARK   22  A    between atoms: _51  and  _52
REMARK   23  A    between atoms: _55  and  _57
REMARK   24  A    between atoms: _57  and  _58
REMARK   25  A    between atoms: _61  and  _63
REMARK   26  A    between atoms: _63  and  _64
REMARK   27  A    between atoms: _63  and  _66
REMARK   28  A    between atoms: _66  and  _67
REMARK   29  A    between atoms: _72  and  _73
REMARK   30  A    between atoms: _75  and  _77
REMARK   31  A    between atoms: _77  and  _78
REMARK   32  A    between atoms: _80  and  _82
REMARK   33  A    between atoms: _82  and  _83
REMARK   34  A    between atoms: _82  and  _85
REMARK   35  A    between atoms: _85  and  _86
REMARK   36  A    between atoms: _86  and  _87
REMARK   37  A    between atoms: _87  and  _88
REMARK   38  A    between atoms: _88  and  _89
REMARK   39  A    between atoms: _93  and  _95
REMARK   40  A    between atoms: _95  and  _96
REMARK   41  A    between atoms: _98  and  _100
REMARK   42  A    between atoms: _100  and  _101
REMARK   43  A    between atoms: _103  and  _105
REMARK   44  A    between atoms: _105  and  _106
REMARK   45  A    between atoms: _105  and  _108
REMARK   46  A    between atoms: _111  and  _113
REMARK   47  A    between atoms: _113  and  _114
REMARK   48  A    between atoms: _113  and  _116
REMARK   49  A    between atoms: _116  and  _117
REMARK   50  A    between atoms: _117  and  _118
REMARK   51  A    between atoms: _118  and  _119
REMARK   52  A    between atoms: _119  and  _120
REMARK   53  A    between atoms: _124  and  _126
REMARK   54  A    between atoms: _126  and  _127
REMARK   55  A    between atoms: _130  and  _132
REMARK   56  A    between atoms: _132  and  _133
REMARK   57  A    between atoms: _132  and  _135
REMARK   58  A    between atoms: _135  and  _136
REMARK   59  A    between atoms: _139  and  _141
REMARK   60  A    between atoms: _141  and  _142
REMARK   61  A    between atoms: _141  and  _144
REMARK   62  A    between atoms: _144  and  _145
REMARK   63  A    between atoms: _145  and  _146
REMARK   64  A    between atoms: _148  and  _150
REMARK   65  A    between atoms: _150  and  _151
REMARK   66  A    between atoms: _150  and  _153
REMARK   67  A    between atoms: _153  and  _154
REMARK   68  A    between atoms: _157  and  _159
REMARK   69  A    between atoms: _159  and  _160
REMARK   70  A    between atoms: _159  and  _162
REMARK   71  A    between atoms: _162  and  _163
REMARK   72  A    between atoms: _166  and  _168
REMARK   73  A    between atoms: _168  and  _169
REMARK   74  A    between atoms: _168  and  _171
REMARK   75  A    between atoms: _171  and  _172
REMARK   76  A    between atoms: _177  and  _178
REMARK   77  A    between atoms: _180  and  _182
REMARK   78  A    between atoms: _182  and  _183
REMARK   79  A    between atoms: _182  and  _185
REMARK   80  A    between atoms: _185  and  _186
REMARK   81  A    between atoms: _189  and  _191
REMARK   82  A    between atoms: _191  and  _192
REMARK   83  A    between atoms: _191  and  _194
REMARK   84  A    between atoms: _194  and  _195
REMARK   85  A    between atoms: _198  and  _200
REMARK   86  A    between atoms: _200  and  _201
REMARK   87  A    between atoms: _200  and  _203
REMARK   88  A    between atoms: _203  and  _204
REMARK   89  A    between atoms: _204  and  _205
REMARK   90  A    between atoms: _207  and  _209
REMARK   91  A    between atoms: _209  and  _210
REMARK   92  A    between atoms: _209  and  _212
REMARK   93  A    between atoms: _212  and  _213
REMARK   94  A    between atoms: _216  and  _218
REMARK   95  A    between atoms: _218  and  _219
REMARK   96  A    between atoms: _218  and  _221
REMARK   97  A    between atoms: _221  and  _222
REMARK   98  A    between atoms: _228  and  _230
REMARK   99  A    between atoms: _230  and  _231
REMARK  100  A    between atoms: _230  and  _233
REMARK  101  A    between atoms: _233  and  _234
REMARK  102  A    between atoms: _237  and  _239
REMARK  103  A    between atoms: _239  and  _240
REMARK  104  A    between atoms: _243  and  _245
REMARK  105  A    between atoms: _245  and  _246
REMARK  106  A    between atoms: _245  and  _248
REMARK  107  A    between atoms: _248  and  _249
REMARK  108  A    between atoms: _252  and  _254
REMARK  109  A    between atoms: _254  and  _255
REMARK  110  A    between atoms: _259  and  _260
REMARK  111  A    between atoms: _265  and  _267
REMARK  112  A    between atoms: _267  and  _268
REMARK  113  A    between atoms: _267  and  _270
REMARK  114  A    between atoms: _270  and  _271
REMARK  115  A    between atoms: _274  and  _276
REMARK  116  A    between atoms: _276  and  _277
REMARK  117  A    between atoms: _276  and  _279
REMARK  118  A    between atoms: _279  and  _280
REMARK  119  A    between atoms: _286  and  _288
REMARK  120  A    between atoms: _288  and  _289
REMARK  121  A    between atoms: _293  and  _294
REMARK  122  A    between atoms: _299  and  _301
REMARK  123  A    between atoms: _301  and  _302
REMARK  124  A    between atoms: _301  and  _304
REMARK  125  A    between atoms: _304  and  _305
REMARK  126  A    between atoms: _308  and  _310
REMARK  127  A    between atoms: _310  and  _311
REMARK  128  A    between atoms: _310  and  _313
REMARK  129  A    between atoms: _313  and  _314
REMARK  130  A    between atoms: _319  and  _320
REMARK                            x       y       z     vdW  Elec       q    Type
REMARK                         _______ _______ _______ _____ _____    ______ ____
ROOT
ATOM      1  O   HOH     1       7.195 -12.518 -14.358  0.00  0.00    +0.000 OA
ENDROOT
TORSDOF 0
REMARK  Name = ../refined-set-2016/3tk2/3tk2_pocket.pdb
REMARK  130 active torsions:
REMARK  status: ('A' for Active; 'I' for Inactive)
REMARK    1  A    between atoms: _1  and  _3
REMARK    2  A    between atoms: _3  and  _4
REMARK    3  A    between atoms: _3  and  _6
REMARK    4  A    between atoms: _6  and  _7
REMARK    5  A    between atoms: _13  and  _15
REMARK    6  A    between atoms: _15  and  _16
REMARK    7  A    between atoms: _15  and  _18
REMARK    8  A    between atoms: _18  and  _19
REMARK    9  A    between atoms: _22  and  _24
REMARK   10  A    between atoms: _24  and  _25
REMARK   11  A    between atoms: _24  and  _27
REMARK   12  A    between atoms: _27  and  _28
REMARK   13  A    between atoms: _33  and  _34
REMARK   14  A    between atoms: _36  and  _38
REMARK   15  A    between atoms: _38  and  _39
REMARK   16  A    between atoms: _38  and  _41
REMARK   17  A    between atoms: _41  and  _42
REMARK   18  A    between atoms: _45  and  _47
REMARK   19  A    between atoms: _47  and  _48
REMARK   20  A    between atoms: _47  and  _50
REMARK   21  A    between atoms: _50  and  _51
REMARK   22  A    between atoms: _51  and  _52
REMARK   23  A    between atoms: _55  and  _57
REMARK   24  A    between atoms: _57  and  _58
REMARK   25  A    between atoms: _61  and  _63
REMARK   26  A    between atoms: _63  and  _64
REMARK   27  A    between atoms: _63  and  _66
REMARK   28  A    between atoms: _66  and  _67
REMARK   29  A    between atoms: _72  and  _73
REMARK   30  A    between atoms: _75  and  _77
REMARK   31  A    between atoms: _77  and  _78
REMARK   32  A    between atoms: _80  and  _82
REMARK   33  A    between atoms: _82  and  _83
REMARK   34  A    between atoms: _82  and  _85
REMARK   35  A    between atoms: _85  and  _86
REMARK   36  A    between atoms: _86  and  _87
REMARK   37  A    between atoms: _87  and  _88
REMARK   38  A    between atoms: _88  and  _89
REMARK   39  A    between atoms: _93  and  _95
REMARK   40  A    between atoms: _95  and  _96
REMARK   41  A    between atoms: _98  and  _100
REMARK   42  A    between atoms: _100  and  _101
REMARK   43  A    between atoms: _103  and  _105
REMARK   44  A    between atoms: _105  and  _106
REMARK   45  A    between atoms: _105  and  _108
REMARK   46  A    between atoms: _111  and  _113
REMARK   47  A    between atoms: _113  and  _114
REMARK   48  A    between atoms: _113  and  _116
REMARK   49  A    between atoms: _116  and  _117
REMARK   50  A    between atoms: _117  and  _118
REMARK   51  A    between atoms: _118  and  _119
REMARK   52  A    between atoms: _119  and  _120
REMARK   53  A    between atoms: _124  and  _126
REMARK   54  A    between atoms: _126  and  _127
REMARK   55  A    between atoms: _130  and  _132
REMARK   56  A    between atoms: _132  and  _133
REMARK   57  A    between atoms: _132  and  _135
REMARK   58  A    between atoms: _135  and  _136
REMARK   59  A    between atoms: _139  and  _141
REMARK   60  A    between atoms: _141  and  _142
REMARK   61  A    between atoms: _141  and  _144
REMARK   62  A    between atoms: _144  and  _145
REMARK   63  A    between atoms: _145  and  _146
REMARK   64  A    between atoms: _148  and  _150
REMARK   65  A    between atoms: _150  and  _151
REMARK   66  A    between atoms: _150  and  _153
REMARK   67  A    between atoms: _153  and  _154
REMARK   68  A    between atoms: _157  and  _159
REMARK   69  A    between atoms: _159  and  _160
REMARK   70  A    between atoms: _159  and  _162
REMARK   71  A    between atoms: _162  and  _163
REMARK   72  A    between atoms: _166  and  _168
REMARK   73  A    between atoms: _168  and  _169
REMARK   74  A    between atoms: _168  and  _171
REMARK   75  A    between atoms: _171  and  _172
REMARK   76  A    between atoms: _177  and  _178
REMARK   77  A    between atoms: _180  and  _182
REMARK   78  A    between atoms: _182  and  _183
REMARK   79  A    between atoms: _182  and  _185
REMARK   80  A    between atoms: _185  and  _186
REMARK   81  A    between atoms: _189  and  _191
REMARK   82  A    between atoms: _191  and  _192
REMARK   83  A    between atoms: _191  and  _194
REMARK   84  A    between atoms: _194  and  _195
REMARK   85  A    between atoms: _198  and  _200
REMARK   86  A    between atoms: _200  and  _201
REMARK   87  A    between atoms: _200  and  _203
REMARK   88  A    between atoms: _203  and  _204
REMARK   89  A    between atoms: _204  and  _205
REMARK   90  A    between atoms: _207  and  _209
REMARK   91  A    between atoms: _209  and  _210
REMARK   92  A    between atoms: _209  and  _212
REMARK   93  A    between atoms: _212  and  _213
REMARK   94  A    between atoms: _216  and  _218
REMARK   95  A    between atoms: _218  and  _219
REMARK   96  A    between atoms: _218  and  _221
REMARK   97  A    between atoms: _221  and  _222
REMARK   98  A    between atoms: _228  and  _230
REMARK   99  A    between atoms: _230  and  _231
REMARK  100  A    between atoms: _230  and  _233
REMARK  101  A    between atoms: _233  and  _234
REMARK  102  A    between atoms: _237  and  _239
REMARK  103  A    between atoms: _239  and  _240
REMARK  104  A    between atoms: _243  and  _245
REMARK  105  A    between atoms: _245  and  _246
REMARK  106  A    between atoms: _245  and  _248
REMARK  107  A    between atoms: _248  and  _249
REMARK  108  A    between atoms: _252  and  _254
REMARK  109  A    between atoms: _254  and  _255
REMARK  110  A    between atoms: _259  and  _260
REMARK  111  A    between atoms: _265  and  _267
REMARK  112  A    between atoms: _267  and  _268
REMARK  113  A    between atoms: _267  and  _270
REMARK  114  A    between atoms: _270  and  _271
REMARK  115  A    between atoms: _274  and  _276
REMARK  116  A    between atoms: _276  and  _277
REMARK  117  A    between atoms: _276  and  _279
REMARK  118  A    between atoms: _279  and  _280
REMARK  119  A    between atoms: _286  and  _288
REMARK  120  A    between atoms: _288  and  _289
REMARK  121  A    between atoms: _293  and  _294
REMARK  122  A    between atoms: _299  and  _301
REMARK  123  A    between atoms: _301  and  _302
REMARK  124  A    between atoms: _301  and  _304
REMARK  125  A    between atoms: _304  and  _305
REMARK  126  A    between atoms: _308  and  _310
REMARK  127  A    between atoms: _310  and  _311
REMARK  128  A    between atoms: _310  and  _313
REMARK  129  A    between atoms: _313  and  _314
REMARK  130  A    between atoms: _319  and  _320
REMARK                            x       y       z     vdW  Elec       q    Type
REMARK                         _______ _______ _______ _____ _____    ______ ____
ROOT
ATOM      1  O   HOH     1       0.173  -8.404 -14.788  0.00  0.00    +0.000 OA
ENDROOT
TORSDOF 0
REMARK  Name = ../refined-set-2016/3tk2/3tk2_pocket.pdb
REMARK  130 active torsions:
REMARK  status: ('A' for Active; 'I' for Inactive)
REMARK    1  A    between atoms: _1  and  _3
REMARK    2  A    between atoms: _3  and  _4
REMARK    3  A    between atoms: _3  and  _6
REMARK    4  A    between atoms: _6  and  _7
REMARK    5  A    between atoms: _13  and  _15
REMARK    6  A    between atoms: _15  and  _16
REMARK    7  A    between atoms: _15  and  _18
REMARK    8  A    between atoms: _18  and  _19
REMARK    9  A    between atoms: _22  and  _24
REMARK   10  A    between atoms: _24  and  _25
REMARK   11  A    between atoms: _24  and  _27
REMARK   12  A    between atoms: _27  and  _28
REMARK   13  A    between atoms: _33  and  _34
REMARK   14  A    between atoms: _36  and  _38
REMARK   15  A    between atoms: _38  and  _39
REMARK   16  A    between atoms: _38  and  _41
REMARK   17  A    between atoms: _41  and  _42
REMARK   18  A    between atoms: _45  and  _47
REMARK   19  A    between atoms: _47  and  _48
REMARK   20  A    between atoms: _47  and  _50
REMARK   21  A    between atoms: _50  and  _51
REMARK   22  A    between atoms: _51  and  _52
REMARK   23  A    between atoms: _55  and  _57
REMARK   24  A    between atoms: _57  and  _58
REMARK   25  A    between atoms: _61  and  _63
REMARK   26  A    between atoms: _63  and  _64
REMARK   27  A    between atoms: _63  and  _66
REMARK   28  A    between atoms: _66  and  _67
REMARK   29  A    between atoms: _72  and  _73
REMARK   30  A    between atoms: _75  and  _77
REMARK   31  A    between atoms: _77  and  _78
REMARK   32  A    between atoms: _80  and  _82
REMARK   33  A    between atoms: _82  and  _83
REMARK   34  A    between atoms: _82  and  _85
REMARK   35  A    between atoms: _85  and  _86
REMARK   36  A    between atoms: _86  and  _87
REMARK   37  A    between atoms: _87  and  _88
REMARK   38  A    between atoms: _88  and  _89
REMARK   39  A    between atoms: _93  and  _95
REMARK   40  A    between atoms: _95  and  _96
REMARK   41  A    between atoms: _98  and  _100
REMARK   42  A    between atoms: _100  and  _101
REMARK   43  A    between atoms: _103  and  _105
REMARK   44  A    between atoms: _105  and  _106
REMARK   45  A    between atoms: _105  and  _108
REMARK   46  A    between atoms: _111  and  _113
REMARK   47  A    between atoms: _113  and  _114
REMARK   48  A    between atoms: _113  and  _116
REMARK   49  A    between atoms: _116  and  _117
REMARK   50  A    between atoms: _117  and  _118
REMARK   51  A    between atoms: _118  and  _119
REMARK   52  A    between atoms: _119  and  _120
REMARK   53  A    between atoms: _124  and  _126
REMARK   54  A    between atoms: _126  and  _127
REMARK   55  A    between atoms: _130  and  _132
REMARK   56  A    between atoms: _132  and  _133
REMARK   57  A    between atoms: _132  and  _135
REMARK   58  A    between atoms: _135  and  _136
REMARK   59  A    between atoms: _139  and  _141
REMARK   60  A    between atoms: _141  and  _142
REMARK   61  A    between atoms: _141  and  _144
REMARK   62  A    between atoms: _144  and  _145
REMARK   63  A    between atoms: _145  and  _146
REMARK   64  A    between atoms: _148  and  _150
REMARK   65  A    between atoms: _150  and  _151
REMARK   66  A    between atoms: _150  and  _153
REMARK   67  A    between atoms: _153  and  _154
REMARK   68  A    between atoms: _157  and  _159
REMARK   69  A    between atoms: _159  and  _160
REMARK   70  A    between atoms: _159  and  _162
REMARK   71  A    between atoms: _162  and  _163
REMARK   72  A    between atoms: _166  and  _168
REMARK   73  A    between atoms: _168  and  _169
REMARK   74  A    between atoms: _168  and  _171
REMARK   75  A    between atoms: _171  and  _172
REMARK   76  A    between atoms: _177  and  _178
REMARK   77  A    between atoms: _180  and  _182
REMARK   78  A    between atoms: _182  and  _183
REMARK   79  A    between atoms: _182  and  _185
REMARK   80  A    between atoms: _185  and  _186
REMARK   81  A    between atoms: _189  and  _191
REMARK   82  A    between atoms: _191  and  _192
REMARK   83  A    between atoms: _191  and  _194
REMARK   84  A    between atoms: _194  and  _195
REMARK   85  A    between atoms: _198  and  _200
REMARK   86  A    between atoms: _200  and  _201
REMARK   87  A    between atoms: _200  and  _203
REMARK   88  A    between atoms: _203  and  _204
REMARK   89  A    between atoms: _204  and  _205
REMARK   90  A    between atoms: _207  and  _209
REMARK   91  A    between atoms: _209  and  _210
REMARK   92  A    between atoms: _209  and  _212
REMARK   93  A    between atoms: _212  and  _213
REMARK   94  A    between atoms: _216  and  _218
REMARK   95  A    between atoms: _218  and  _219
REMARK   96  A    between atoms: _218  and  _221
REMARK   97  A    between atoms: _221  and  _222
REMARK   98  A    between atoms: _228  and  _230
REMARK   99  A    between atoms: _230  and  _231
REMARK  100  A    between atoms: _230  and  _233
REMARK  101  A    between atoms: _233  and  _234
REMARK  102  A    between atoms: _237  and  _239
REMARK  103  A    between atoms: _239  and  _240
REMARK  104  A    between atoms: _243  and  _245
REMARK  105  A    between atoms: _245  and  _246
REMARK  106  A    between atoms: _245  and  _248
REMARK  107  A    between atoms: _248  and  _249
REMARK  108  A    between atoms: _252  and  _254
REMARK  109  A    between atoms: _254  and  _255
REMARK  110  A    between atoms: _259  and  _260
REMARK  111  A    between atoms: _265  and  _267
REMARK  112  A    between atoms: _267  and  _268
REMARK  113  A    between atoms: _267  and  _270
REMARK  114  A    between atoms: _270  and  _271
REMARK  115  A    between atoms: _274  and  _276
REMARK  116  A    between atoms: _276  and  _277
REMARK  117  A    between atoms: _276  and  _279
REMARK  118  A    between atoms: _279  and  _280
REMARK  119  A    between atoms: _286  and  _288
REMARK  120  A    between atoms: _288  and  _289
REMARK  121  A    between atoms: _293  and  _294
REMARK  122  A    between atoms: _299  and  _301
REMARK  123  A    between atoms: _301  and  _302
REMARK  124  A    between atoms: _301  and  _304
REMARK  125  A    between atoms: _304  and  _305
REMARK  126  A    between atoms: _308  and  _310
REMARK  127  A    between atoms: _310  and  _311
REMARK  128  A    between atoms: _310  and  _313
REMARK  129  A    between atoms: _313  and  _314
REMARK  130  A    between atoms: _319  and  _320
REMARK                            x       y       z     vdW  Elec       q    Type
REMARK                         _______ _______ _______ _____ _____    ______ ____
ROOT
ATOM      1  O   HOH     1       3.122 -13.450 -13.557  0.00  0.00    +0.000 OA
ENDROOT
TORSDOF 0
REMARK  Name = ../refined-set-2016/3tk2/3tk2_pocket.pdb
REMARK  130 active torsions:
REMARK  status: ('A' for Active; 'I' for Inactive)
REMARK    1  A    between atoms: _1  and  _3
REMARK    2  A    between atoms: _3  and  _4
REMARK    3  A    between atoms: _3  and  _6
REMARK    4  A    between atoms: _6  and  _7
REMARK    5  A    between atoms: _13  and  _15
REMARK    6  A    between atoms: _15  and  _16
REMARK    7  A    between atoms: _15  and  _18
REMARK    8  A    between atoms: _18  and  _19
REMARK    9  A    between atoms: _22  and  _24
REMARK   10  A    between atoms: _24  and  _25
REMARK   11  A    between atoms: _24  and  _27
REMARK   12  A    between atoms: _27  and  _28
REMARK   13  A    between atoms: _33  and  _34
REMARK   14  A    between atoms: _36  and  _38
REMARK   15  A    between atoms: _38  and  _39
REMARK   16  A    between atoms: _38  and  _41
REMARK   17  A    between atoms: _41  and  _42
REMARK   18  A    between atoms: _45  and  _47
REMARK   19  A    between atoms: _47  and  _48
REMARK   20  A    between atoms: _47  and  _50
REMARK   21  A    between atoms: _50  and  _51
REMARK   22  A    between atoms: _51  and  _52
REMARK   23  A    between atoms: _55  and  _57
REMARK   24  A    between atoms: _57  and  _58
REMARK   25  A    between atoms: _61  and  _63
REMARK   26  A    between atoms: _63  and  _64
REMARK   27  A    between atoms: _63  and  _66
REMARK   28  A    between atoms: _66  and  _67
REMARK   29  A    between atoms: _72  and  _73
REMARK   30  A    between atoms: _75  and  _77
REMARK   31  A    between atoms: _77  and  _78
REMARK   32  A    between atoms: _80  and  _82
REMARK   33  A    between atoms: _82  and  _83
REMARK   34  A    between atoms: _82  and  _85
REMARK   35  A    between atoms: _85  and  _86
REMARK   36  A    between atoms: _86  and  _87
REMARK   37  A    between atoms: _87  and  _88
REMARK   38  A    between atoms: _88  and  _89
REMARK   39  A    between atoms: _93  and  _95
REMARK   40  A    between atoms: _95  and  _96
REMARK   41  A    between atoms: _98  and  _100
REMARK   42  A    between atoms: _100  and  _101
REMARK   43  A    between atoms: _103  and  _105
REMARK   44  A    between atoms: _105  and  _106
REMARK   45  A    between atoms: _105  and  _108
REMARK   46  A    between atoms: _111  and  _113
REMARK   47  A    between atoms: _113  and  _114
REMARK   48  A    between atoms: _113  and  _116
REMARK   49  A    between atoms: _116  and  _117
REMARK   50  A    between atoms: _117  and  _118
REMARK   51  A    between atoms: _118  and  _119
REMARK   52  A    between atoms: _119  and  _120
REMARK   53  A    between atoms: _124  and  _126
REMARK   54  A    between atoms: _126  and  _127
REMARK   55  A    between atoms: _130  and  _132
REMARK   56  A    between atoms: _132  and  _133
REMARK   57  A    between atoms: _132  and  _135
REMARK   58  A    between atoms: _135  and  _136
REMARK   59  A    between atoms: _139  and  _141
REMARK   60  A    between atoms: _141  and  _142
REMARK   61  A    between atoms: _141  and  _144
REMARK   62  A    between atoms: _144  and  _145
REMARK   63  A    between atoms: _145  and  _146
REMARK   64  A    between atoms: _148  and  _150
REMARK   65  A    between atoms: _150  and  _151
REMARK   66  A    between atoms: _150  and  _153
REMARK   67  A    between atoms: _153  and  _154
REMARK   68  A    between atoms: _157  and  _159
REMARK   69  A    between atoms: _159  and  _160
REMARK   70  A    between atoms: _159  and  _162
REMARK   71  A    between atoms: _162  and  _163
REMARK   72  A    between atoms: _166  and  _168
REMARK   73  A    between atoms: _168  and  _169
REMARK   74  A    between atoms: _168  and  _171
REMARK   75  A    between atoms: _171  and  _172
REMARK   76  A    between atoms: _177  and  _178
REMARK   77  A    between atoms: _180  and  _182
REMARK   78  A    between atoms: _182  and  _183
REMARK   79  A    between atoms: _182  and  _185
REMARK   80  A    between atoms: _185  and  _186
REMARK   81  A    between atoms: _189  and  _191
REMARK   82  A    between atoms: _191  and  _192
REMARK   83  A    between atoms: _191  and  _194
REMARK   84  A    between atoms: _194  and  _195
REMARK   85  A    between atoms: _198  and  _200
REMARK   86  A    between atoms: _200  and  _201
REMARK   87  A    between atoms: _200  and  _203
REMARK   88  A    between atoms: _203  and  _204
REMARK   89  A    between atoms: _204  and  _205
REMARK   90  A    between atoms: _207  and  _209
REMARK   91  A    between atoms: _209  and  _210
REMARK   92  A    between atoms: _209  and  _212
REMARK   93  A    between atoms: _212  and  _213
REMARK   94  A    between atoms: _216  and  _218
REMARK   95  A    between atoms: _218  and  _219
REMARK   96  A    between atoms: _218  and  _221
REMARK   97  A    between atoms: _221  and  _222
REMARK   98  A    between atoms: _228  and  _230
REMARK   99  A    between atoms: _230  and  _231
REMARK  100  A    between atoms: _230  and  _233
REMARK  101  A    between atoms: _233  and  _234
REMARK  102  A    between atoms: _237  and  _239
REMARK  103  A    between atoms: _239  and  _240
REMARK  104  A    between atoms: _243  and  _245
REMARK  105  A    between atoms: _245  and  _246
REMARK  106  A    between atoms: _245  and  _248
REMARK  107  A    between atoms: _248  and  _249
REMARK  108  A    between atoms: _252  and  _254
REMARK  109  A    between atoms: _254  and  _255
REMARK  110  A    between atoms: _259  and  _260
REMARK  111  A    between atoms: _265  and  _267
REMARK  112  A    between atoms: _267  and  _268
REMARK  113  A    between atoms: _267  and  _270
REMARK  114  A    between atoms: _270  and  _271
REMARK  115  A    between atoms: _274  and  _276
REMARK  116  A    between atoms: _276  and  _277
REMARK  117  A    between atoms: _276  and  _279
REMARK  118  A    between atoms: _279  and  _280
REMARK  119  A    between atoms: _286  and  _288
REMARK  120  A    between atoms: _288  and  _289
REMARK  121  A    between atoms: _293  and  _294
REMARK  122  A    between atoms: _299  and  _301
REMARK  123  A    between atoms: _301  and  _302
REMARK  124  A    between atoms: _301  and  _304
REMARK  125  A    between atoms: _304  and  _305
REMARK  126  A    between atoms: _308  and  _310
REMARK  127  A    between atoms: _310  and  _311
REMARK  128  A    between atoms: _310  and  _313
REMARK  129  A    between atoms: _313  and  _314
REMARK  130  A    between atoms: _319  and  _320
REMARK                            x       y       z     vdW  Elec       q    Type
REMARK                         _______ _______ _______ _____ _____    ______ ____
ROOT
ATOM      1  O   HOH     1      12.528 -13.399 -14.465  0.00  0.00    +0.000 OA
ENDROOT
TORSDOF 0
REMARK  Name = ../refined-set-2016/3tk2/3tk2_pocket.pdb
REMARK  130 active torsions:
REMARK  status: ('A' for Active; 'I' for Inactive)
REMARK    1  A    between atoms: _1  and  _3
REMARK    2  A    between atoms: _3  and  _4
REMARK    3  A    between atoms: _3  and  _6
REMARK    4  A    between atoms: _6  and  _7
REMARK    5  A    between atoms: _13  and  _15
REMARK    6  A    between atoms: _15  and  _16
REMARK    7  A    between atoms: _15  and  _18
REMARK    8  A    between atoms: _18  and  _19
REMARK    9  A    between atoms: _22  and  _24
REMARK   10  A    between atoms: _24  and  _25
REMARK   11  A    between atoms: _24  and  _27
REMARK   12  A    between atoms: _27  and  _28
REMARK   13  A    between atoms: _33  and  _34
REMARK   14  A    between atoms: _36  and  _38
REMARK   15  A    between atoms: _38  and  _39
REMARK   16  A    between atoms: _38  and  _41
REMARK   17  A    between atoms: _41  and  _42
REMARK   18  A    between atoms: _45  and  _47
REMARK   19  A    between atoms: _47  and  _48
REMARK   20  A    between atoms: _47  and  _50
REMARK   21  A    between atoms: _50  and  _51
REMARK   22  A    between atoms: _51  and  _52
REMARK   23  A    between atoms: _55  and  _57
REMARK   24  A    between atoms: _57  and  _58
REMARK   25  A    between atoms: _61  and  _63
REMARK   26  A    between atoms: _63  and  _64
REMARK   27  A    between atoms: _63  and  _66
REMARK   28  A    between atoms: _66  and  _67
REMARK   29  A    between atoms: _72  and  _73
REMARK   30  A    between atoms: _75  and  _77
REMARK   31  A    between atoms: _77  and  _78
REMARK   32  A    between atoms: _80  and  _82
REMARK   33  A    between atoms: _82  and  _83
REMARK   34  A    between atoms: _82  and  _85
REMARK   35  A    between atoms: _85  and  _86
REMARK   36  A    between atoms: _86  and  _87
REMARK   37  A    between atoms: _87  and  _88
REMARK   38  A    between atoms: _88  and  _89
REMARK   39  A    between atoms: _93  and  _95
REMARK   40  A    between atoms: _95  and  _96
REMARK   41  A    between atoms: _98  and  _100
REMARK   42  A    between atoms: _100  and  _101
REMARK   43  A    between atoms: _103  and  _105
REMARK   44  A    between atoms: _105  and  _106
REMARK   45  A    between atoms: _105  and  _108
REMARK   46  A    between atoms: _111  and  _113
REMARK   47  A    between atoms: _113  and  _114
REMARK   48  A    between atoms: _113  and  _116
REMARK   49  A    between atoms: _116  and  _117
REMARK   50  A    between atoms: _117  and  _118
REMARK   51  A    between atoms: _118  and  _119
REMARK   52  A    between atoms: _119  and  _120
REMARK   53  A    between atoms: _124  and  _126
REMARK   54  A    between atoms: _126  and  _127
REMARK   55  A    between atoms: _130  and  _132
REMARK   56  A    between atoms: _132  and  _133
REMARK   57  A    between atoms: _132  and  _135
REMARK   58  A    between atoms: _135  and  _136
REMARK   59  A    between atoms: _139  and  _141
REMARK   60  A    between atoms: _141  and  _142
REMARK   61  A    between atoms: _141  and  _144
REMARK   62  A    between atoms: _144  and  _145
REMARK   63  A    between atoms: _145  and  _146
REMARK   64  A    between atoms: _148  and  _150
REMARK   65  A    between atoms: _150  and  _151
REMARK   66  A    between atoms: _150  and  _153
REMARK   67  A    between atoms: _153  and  _154
REMARK   68  A    between atoms: _157  and  _159
REMARK   69  A    between atoms: _159  and  _160
REMARK   70  A    between atoms: _159  and  _162
REMARK   71  A    between atoms: _162  and  _163
REMARK   72  A    between atoms: _166  and  _168
REMARK   73  A    between atoms: _168  and  _169
REMARK   74  A    between atoms: _168  and  _171
REMARK   75  A    between atoms: _171  and  _172
REMARK   76  A    between atoms: _177  and  _178
REMARK   77  A    between atoms: _180  and  _182
REMARK   78  A    between atoms: _182  and  _183
REMARK   79  A    between atoms: _182  and  _185
REMARK   80  A    between atoms: _185  and  _186
REMARK   81  A    between atoms: _189  and  _191
REMARK   82  A    between atoms: _191  and  _192
REMARK   83  A    between atoms: _191  and  _194
REMARK   84  A    between atoms: _194  and  _195
REMARK   85  A    between atoms: _198  and  _200
REMARK   86  A    between atoms: _200  and  _201
REMARK   87  A    between atoms: _200  and  _203
REMARK   88  A    between atoms: _203  and  _204
REMARK   89  A    between atoms: _204  and  _205
REMARK   90  A    between atoms: _207  and  _209
REMARK   91  A    between atoms: _209  and  _210
REMARK   92  A    between atoms: _209  and  _212
REMARK   93  A    between atoms: _212  and  _213
REMARK   94  A    between atoms: _216  and  _218
REMARK   95  A    between atoms: _218  and  _219
REMARK   96  A    between atoms: _218  and  _221
REMARK   97  A    between atoms: _221  and  _222
REMARK   98  A    between atoms: _228  and  _230
REMARK   99  A    between atoms: _230  and  _231
REMARK  100  A    between atoms: _230  and  _233
REMARK  101  A    between atoms: _233  and  _234
REMARK  102  A    between atoms: _237  and  _239
REMARK  103  A    between atoms: _239  and  _240
REMARK  104  A    between atoms: _243  and  _245
REMARK  105  A    between atoms: _245  and  _246
REMARK  106  A    between atoms: _245  and  _248
REMARK  107  A    between atoms: _248  and  _249
REMARK  108  A    between atoms: _252  and  _254
REMARK  109  A    between atoms: _254  and  _255
REMARK  110  A    between atoms: _259  and  _260
REMARK  111  A    between atoms: _265  and  _267
REMARK  112  A    between atoms: _267  and  _268
REMARK  113  A    between atoms: _267  and  _270
REMARK  114  A    between atoms: _270  and  _271
REMARK  115  A    between atoms: _274  and  _276
REMARK  116  A    between atoms: _276  and  _277
REMARK  117  A    between atoms: _276  and  _279
REMARK  118  A    between atoms: _279  and  _280
REMARK  119  A    between atoms: _286  and  _288
REMARK  120  A    between atoms: _288  and  _289
REMARK  121  A    between atoms: _293  and  _294
REMARK  122  A    between atoms: _299  and  _301
REMARK  123  A    between atoms: _301  and  _302
REMARK  124  A    between atoms: _301  and  _304
REMARK  125  A    between atoms: _304  and  _305
REMARK  126  A    between atoms: _308  and  _310
REMARK  127  A    between atoms: _310  and  _311
REMARK  128  A    between atoms: _310  and  _313
REMARK  129  A    between atoms: _313  and  _314
REMARK  130  A    between atoms: _319  and  _320
REMARK                            x       y       z     vdW  Elec       q    Type
REMARK                         _______ _______ _______ _____ _____    ______ ____
ROOT
ATOM      1  O   HOH     1       9.245 -10.851 -15.238  0.00  0.00    +0.000 OA
ENDROOT
TORSDOF 0
REMARK  Name = ../refined-set-2016/3tk2/3tk2_pocket.pdb
REMARK  130 active torsions:
REMARK  status: ('A' for Active; 'I' for Inactive)
REMARK    1  A    between atoms: _1  and  _3
REMARK    2  A    between atoms: _3  and  _4
REMARK    3  A    between atoms: _3  and  _6
REMARK    4  A    between atoms: _6  and  _7
REMARK    5  A    between atoms: _13  and  _15
REMARK    6  A    between atoms: _15  and  _16
REMARK    7  A    between atoms: _15  and  _18
REMARK    8  A    between atoms: _18  and  _19
REMARK    9  A    between atoms: _22  and  _24
REMARK   10  A    between atoms: _24  and  _25
REMARK   11  A    between atoms: _24  and  _27
REMARK   12  A    between atoms: _27  and  _28
REMARK   13  A    between atoms: _33  and  _34
REMARK   14  A    between atoms: _36  and  _38
REMARK   15  A    between atoms: _38  and  _39
REMARK   16  A    between atoms: _38  and  _41
REMARK   17  A    between atoms: _41  and  _42
REMARK   18  A    between atoms: _45  and  _47
REMARK   19  A    between atoms: _47  and  _48
REMARK   20  A    between atoms: _47  and  _50
REMARK   21  A    between atoms: _50  and  _51
REMARK   22  A    between atoms: _51  and  _52
REMARK   23  A    between atoms: _55  and  _57
REMARK   24  A    between atoms: _57  and  _58
REMARK   25  A    between atoms: _61  and  _63
REMARK   26  A    between atoms: _63  and  _64
REMARK   27  A    between atoms: _63  and  _66
REMARK   28  A    between atoms: _66  and  _67
REMARK   29  A    between atoms: _72  and  _73
REMARK   30  A    between atoms: _75  and  _77
REMARK   31  A    between atoms: _77  and  _78
REMARK   32  A    between atoms: _80  and  _82
REMARK   33  A    between atoms: _82  and  _83
REMARK   34  A    between atoms: _82  and  _85
REMARK   35  A    between atoms: _85  and  _86
REMARK   36  A    between atoms: _86  and  _87
REMARK   37  A    between atoms: _87  and  _88
REMARK   38  A    between atoms: _88  and  _89
REMARK   39  A    between atoms: _93  and  _95
REMARK   40  A    between atoms: _95  and  _96
REMARK   41  A    between atoms: _98  and  _100
REMARK   42  A    between atoms: _100  and  _101
REMARK   43  A    between atoms: _103  and  _105
REMARK   44  A    between atoms: _105  and  _106
REMARK   45  A    between atoms: _105  and  _108
REMARK   46  A    between atoms: _111  and  _113
REMARK   47  A    between atoms: _113  and  _114
REMARK   48  A    between atoms: _113  and  _116
REMARK   49  A    between atoms: _116  and  _117
REMARK   50  A    between atoms: _117  and  _118
REMARK   51  A    between atoms: _118  and  _119
REMARK   52  A    between atoms: _119  and  _120
REMARK   53  A    between atoms: _124  and  _126
REMARK   54  A    between atoms: _126  and  _127
REMARK   55  A    between atoms: _130  and  _132
REMARK   56  A    between atoms: _132  and  _133
REMARK   57  A    between atoms: _132  and  _135
REMARK   58  A    between atoms: _135  and  _136
REMARK   59  A    between atoms: _139  and  _141
REMARK   60  A    between atoms: _141  and  _142
REMARK   61  A    between atoms: _141  and  _144
REMARK   62  A    between atoms: _144  and  _145
REMARK   63  A    between atoms: _145  and  _146
REMARK   64  A    between atoms: _148  and  _150
REMARK   65  A    between atoms: _150  and  _151
REMARK   66  A    between atoms: _150  and  _153
REMARK   67  A    between atoms: _153  and  _154
REMARK   68  A    between atoms: _157  and  _159
REMARK   69  A    between atoms: _159  and  _160
REMARK   70  A    between atoms: _159  and  _162
REMARK   71  A    between atoms: _162  and  _163
REMARK   72  A    between atoms: _166  and  _168
REMARK   73  A    between atoms: _168  and  _169
REMARK   74  A    between atoms: _168  and  _171
REMARK   75  A    between atoms: _171  and  _172
REMARK   76  A    between atoms: _177  and  _178
REMARK   77  A    between atoms: _180  and  _182
REMARK   78  A    between atoms: _182  and  _183
REMARK   79  A    between atoms: _182  and  _185
REMARK   80  A    between atoms: _185  and  _186
REMARK   81  A    between atoms: _189  and  _191
REMARK   82  A    between atoms: _191  and  _192
REMARK   83  A    between atoms: _191  and  _194
REMARK   84  A    between atoms: _194  and  _195
REMARK   85  A    between atoms: _198  and  _200
REMARK   86  A    between atoms: _200  and  _201
REMARK   87  A    between atoms: _200  and  _203
REMARK   88  A    between atoms: _203  and  _204
REMARK   89  A    between atoms: _204  and  _205
REMARK   90  A    between atoms: _207  and  _209
REMARK   91  A    between atoms: _209  and  _210
REMARK   92  A    between atoms: _209  and  _212
REMARK   93  A    between atoms: _212  and  _213
REMARK   94  A    between atoms: _216  and  _218
REMARK   95  A    between atoms: _218  and  _219
REMARK   96  A    between atoms: _218  and  _221
REMARK   97  A    between atoms: _221  and  _222
REMARK   98  A    between atoms: _228  and  _230
REMARK   99  A    between atoms: _230  and  _231
REMARK  100  A    between atoms: _230  and  _233
REMARK  101  A    between atoms: _233  and  _234
REMARK  102  A    between atoms: _237  and  _239
REMARK  103  A    between atoms: _239  and  _240
REMARK  104  A    between atoms: _243  and  _245
REMARK  105  A    between atoms: _245  and  _246
REMARK  106  A    between atoms: _245  and  _248
REMARK  107  A    between atoms: _248  and  _249
REMARK  108  A    between atoms: _252  and  _254
REMARK  109  A    between atoms: _254  and  _255
REMARK  110  A    between atoms: _259  and  _260
REMARK  111  A    between atoms: _265  and  _267
REMARK  112  A    between atoms: _267  and  _268
REMARK  113  A    between atoms: _267  and  _270
REMARK  114  A    between atoms: _270  and  _271
REMARK  115  A    between atoms: _274  and  _276
REMARK  116  A    between atoms: _276  and  _277
REMARK  117  A    between atoms: _276  and  _279
REMARK  118  A    between atoms: _279  and  _280
REMARK  119  A    between atoms: _286  and  _288
REMARK  120  A    between atoms: _288  and  _289
REMARK  121  A    between atoms: _293  and  _294
REMARK  122  A    between atoms: _299  and  _301
REMARK  123  A    between atoms: _301  and  _302
REMARK  124  A    between atoms: _301  and  _304
REMARK  125  A    between atoms: _304  and  _305
REMARK  126  A    between atoms: _308  and  _310
REMARK  127  A    between atoms: _310  and  _311
REMARK  128  A    between atoms: _310  and  _313
REMARK  129  A    between atoms: _313  and  _314
REMARK  130  A    between atoms: _319  and  _320
REMARK                            x       y       z     vdW  Elec       q    Type
REMARK                         _______ _______ _______ _____ _____    ______ ____
ROOT
ATOM      1  O   HOH     1       4.093 -10.737 -16.424  0.00  0.00    +0.000 OA
ENDROOT
TORSDOF 0
REMARK  Name = ../refined-set-2016/3tk2/3tk2_pocket.pdb
REMARK  130 active torsions:
REMARK  status: ('A' for Active; 'I' for Inactive)
REMARK    1  A    between atoms: _1  and  _3
REMARK    2  A    between atoms: _3  and  _4
REMARK    3  A    between atoms: _3  and  _6
REMARK    4  A    between atoms: _6  and  _7
REMARK    5  A    between atoms: _13  and  _15
REMARK    6  A    between atoms: _15  and  _16
REMARK    7  A    between atoms: _15  and  _18
REMARK    8  A    between atoms: _18  and  _19
REMARK    9  A    between atoms: _22  and  _24
REMARK   10  A    between atoms: _24  and  _25
REMARK   11  A    between atoms: _24  and  _27
REMARK   12  A    between atoms: _27  and  _28
REMARK   13  A    between atoms: _33  and  _34
REMARK   14  A    between atoms: _36  and  _38
REMARK   15  A    between atoms: _38  and  _39
REMARK   16  A    between atoms: _38  and  _41
REMARK   17  A    between atoms: _41  and  _42
REMARK   18  A    between atoms: _45  and  _47
REMARK   19  A    between atoms: _47  and  _48
REMARK   20  A    between atoms: _47  and  _50
REMARK   21  A    between atoms: _50  and  _51
REMARK   22  A    between atoms: _51  and  _52
REMARK   23  A    between atoms: _55  and  _57
REMARK   24  A    between atoms: _57  and  _58
REMARK   25  A    between atoms: _61  and  _63
REMARK   26  A    between atoms: _63  and  _64
REMARK   27  A    between atoms: _63  and  _66
REMARK   28  A    between atoms: _66  and  _67
REMARK   29  A    between atoms: _72  and  _73
REMARK   30  A    between atoms: _75  and  _77
REMARK   31  A    between atoms: _77  and  _78
REMARK   32  A    between atoms: _80  and  _82
REMARK   33  A    between atoms: _82  and  _83
REMARK   34  A    between atoms: _82  and  _85
REMARK   35  A    between atoms: _85  and  _86
REMARK   36  A    between atoms: _86  and  _87
REMARK   37  A    between atoms: _87  and  _88
REMARK   38  A    between atoms: _88  and  _89
REMARK   39  A    between atoms: _93  and  _95
REMARK   40  A    between atoms: _95  and  _96
REMARK   41  A    between atoms: _98  and  _100
REMARK   42  A    between atoms: _100  and  _101
REMARK   43  A    between atoms: _103  and  _105
REMARK   44  A    between atoms: _105  and  _106
REMARK   45  A    between atoms: _105  and  _108
REMARK   46  A    between atoms: _111  and  _113
REMARK   47  A    between atoms: _113  and  _114
REMARK   48  A    between atoms: _113  and  _116
REMARK   49  A    between atoms: _116  and  _117
REMARK   50  A    between atoms: _117  and  _118
REMARK   51  A    between atoms: _118  and  _119
REMARK   52  A    between atoms: _119  and  _120
REMARK   53  A    between atoms: _124  and  _126
REMARK   54  A    between atoms: _126  and  _127
REMARK   55  A    between atoms: _130  and  _132
REMARK   56  A    between atoms: _132  and  _133
REMARK   57  A    between atoms: _132  and  _135
REMARK   58  A    between atoms: _135  and  _136
REMARK   59  A    between atoms: _139  and  _141
REMARK   60  A    between atoms: _141  and  _142
REMARK   61  A    between atoms: _141  and  _144
REMARK   62  A    between atoms: _144  and  _145
REMARK   63  A    between atoms: _145  and  _146
REMARK   64  A    between atoms: _148  and  _150
REMARK   65  A    between atoms: _150  and  _151
REMARK   66  A    between atoms: _150  and  _153
REMARK   67  A    between atoms: _153  and  _154
REMARK   68  A    between atoms: _157  and  _159
REMARK   69  A    between atoms: _159  and  _160
REMARK   70  A    between atoms: _159  and  _162
REMARK   71  A    between atoms: _162  and  _163
REMARK   72  A    between atoms: _166  and  _168
REMARK   73  A    between atoms: _168  and  _169
REMARK   74  A    between atoms: _168  and  _171
REMARK   75  A    between atoms: _171  and  _172
REMARK   76  A    between atoms: _177  and  _178
REMARK   77  A    between atoms: _180  and  _182
REMARK   78  A    between atoms: _182  and  _183
REMARK   79  A    between atoms: _182  and  _185
REMARK   80  A    between atoms: _185  and  _186
REMARK   81  A    between atoms: _189  and  _191
REMARK   82  A    between atoms: _191  and  _192
REMARK   83  A    between atoms: _191  and  _194
REMARK   84  A    between atoms: _194  and  _195
REMARK   85  A    between atoms: _198  and  _200
REMARK   86  A    between atoms: _200  and  _201
REMARK   87  A    between atoms: _200  and  _203
REMARK   88  A    between atoms: _203  and  _204
REMARK   89  A    between atoms: _204  and  _205
REMARK   90  A    between atoms: _207  and  _209
REMARK   91  A    between atoms: _209  and  _210
REMARK   92  A    between atoms: _209  and  _212
REMARK   93  A    between atoms: _212  and  _213
REMARK   94  A    between atoms: _216  and  _218
REMARK   95  A    between atoms: _218  and  _219
REMARK   96  A    between atoms: _218  and  _221
REMARK   97  A    between atoms: _221  and  _222
REMARK   98  A    between atoms: _228  and  _230
REMARK   99  A    between atoms: _230  and  _231
REMARK  100  A    between atoms: _230  and  _233
REMARK  101  A    between atoms: _233  and  _234
REMARK  102  A    between atoms: _237  and  _239
REMARK  103  A    between atoms: _239  and  _240
REMARK  104  A    between atoms: _243  and  _245
REMARK  105  A    between atoms: _245  and  _246
REMARK  106  A    between atoms: _245  and  _248
REMARK  107  A    between atoms: _248  and  _249
REMARK  108  A    between atoms: _252  and  _254
REMARK  109  A    between atoms: _254  and  _255
REMARK  110  A    between atoms: _259  and  _260
REMARK  111  A    between atoms: _265  and  _267
REMARK  112  A    between atoms: _267  and  _268
REMARK  113  A    between atoms: _267  and  _270
REMARK  114  A    between atoms: _270  and  _271
REMARK  115  A    between atoms: _274  and  _276
REMARK  116  A    between atoms: _276  and  _277
REMARK  117  A    between atoms: _276  and  _279
REMARK  118  A    between atoms: _279  and  _280
REMARK  119  A    between atoms: _286  and  _288
REMARK  120  A    between atoms: _288  and  _289
REMARK  121  A    between atoms: _293  and  _294
REMARK  122  A    between atoms: _299  and  _301
REMARK  123  A    between atoms: _301  and  _302
REMARK  124  A    between atoms: _301  and  _304
REMARK  125  A    between atoms: _304  and  _305
REMARK  126  A    between atoms: _308  and  _310
REMARK  127  A    between atoms: _310  and  _311
REMARK  128  A    between atoms: _310  and  _313
REMARK  129  A    between atoms: _313  and  _314
REMARK  130  A    between atoms: _319  and  _320
REMARK                            x       y       z     vdW  Elec       q    Type
REMARK                         _______ _______ _______ _____ _____    ______ ____
ROOT
ATOM      1  O   HOH     1       0.768 -13.216 -14.042  0.00  0.00    +0.000 OA
ENDROOT
TORSDOF 0
REMARK  Name = ../refined-set-2016/3tk2/3tk2_pocket.pdb
REMARK  130 active torsions:
REMARK  status: ('A' for Active; 'I' for Inactive)
REMARK    1  A    between atoms: _1  and  _3
REMARK    2  A    between atoms: _3  and  _4
REMARK    3  A    between atoms: _3  and  _6
REMARK    4  A    between atoms: _6  and  _7
REMARK    5  A    between atoms: _13  and  _15
REMARK    6  A    between atoms: _15  and  _16
REMARK    7  A    between atoms: _15  and  _18
REMARK    8  A    between atoms: _18  and  _19
REMARK    9  A    between atoms: _22  and  _24
REMARK   10  A    between atoms: _24  and  _25
REMARK   11  A    between atoms: _24  and  _27
REMARK   12  A    between atoms: _27  and  _28
REMARK   13  A    between atoms: _33  and  _34
REMARK   14  A    between atoms: _36  and  _38
REMARK   15  A    between atoms: _38  and  _39
REMARK   16  A    between atoms: _38  and  _41
REMARK   17  A    between atoms: _41  and  _42
REMARK   18  A    between atoms: _45  and  _47
REMARK   19  A    between atoms: _47  and  _48
REMARK   20  A    between atoms: _47  and  _50
REMARK   21  A    between atoms: _50  and  _51
REMARK   22  A    between atoms: _51  and  _52
REMARK   23  A    between atoms: _55  and  _57
REMARK   24  A    between atoms: _57  and  _58
REMARK   25  A    between atoms: _61  and  _63
REMARK   26  A    between atoms: _63  and  _64
REMARK   27  A    between atoms: _63  and  _66
REMARK   28  A    between atoms: _66  and  _67
REMARK   29  A    between atoms: _72  and  _73
REMARK   30  A    between atoms: _75  and  _77
REMARK   31  A    between atoms: _77  and  _78
REMARK   32  A    between atoms: _80  and  _82
REMARK   33  A    between atoms: _82  and  _83
REMARK   34  A    between atoms: _82  and  _85
REMARK   35  A    between atoms: _85  and  _86
REMARK   36  A    between atoms: _86  and  _87
REMARK   37  A    between atoms: _87  and  _88
REMARK   38  A    between atoms: _88  and  _89
REMARK   39  A    between atoms: _93  and  _95
REMARK   40  A    between atoms: _95  and  _96
REMARK   41  A    between atoms: _98  and  _100
REMARK   42  A    between atoms: _100  and  _101
REMARK   43  A    between atoms: _103  and  _105
REMARK   44  A    between atoms: _105  and  _106
REMARK   45  A    between atoms: _105  and  _108
REMARK   46  A    between atoms: _111  and  _113
REMARK   47  A    between atoms: _113  and  _114
REMARK   48  A    between atoms: _113  and  _116
REMARK   49  A    between atoms: _116  and  _117
REMARK   50  A    between atoms: _117  and  _118
REMARK   51  A    between atoms: _118  and  _119
REMARK   52  A    between atoms: _119  and  _120
REMARK   53  A    between atoms: _124  and  _126
REMARK   54  A    between atoms: _126  and  _127
REMARK   55  A    between atoms: _130  and  _132
REMARK   56  A    between atoms: _132  and  _133
REMARK   57  A    between atoms: _132  and  _135
REMARK   58  A    between atoms: _135  and  _136
REMARK   59  A    between atoms: _139  and  _141
REMARK   60  A    between atoms: _141  and  _142
REMARK   61  A    between atoms: _141  and  _144
REMARK   62  A    between atoms: _144  and  _145
REMARK   63  A    between atoms: _145  and  _146
REMARK   64  A    between atoms: _148  and  _150
REMARK   65  A    between atoms: _150  and  _151
REMARK   66  A    between atoms: _150  and  _153
REMARK   67  A    between atoms: _153  and  _154
REMARK   68  A    between atoms: _157  and  _159
REMARK   69  A    between atoms: _159  and  _160
REMARK   70  A    between atoms: _159  and  _162
REMARK   71  A    between atoms: _162  and  _163
REMARK   72  A    between atoms: _166  and  _168
REMARK   73  A    between atoms: _168  and  _169
REMARK   74  A    between atoms: _168  and  _171
REMARK   75  A    between atoms: _171  and  _172
REMARK   76  A    between atoms: _177  and  _178
REMARK   77  A    between atoms: _180  and  _182
REMARK   78  A    between atoms: _182  and  _183
REMARK   79  A    between atoms: _182  and  _185
REMARK   80  A    between atoms: _185  and  _186
REMARK   81  A    between atoms: _189  and  _191
REMARK   82  A    between atoms: _191  and  _192
REMARK   83  A    between atoms: _191  and  _194
REMARK   84  A    between atoms: _194  and  _195
REMARK   85  A    between atoms: _198  and  _200
REMARK   86  A    between atoms: _200  and  _201
REMARK   87  A    between atoms: _200  and  _203
REMARK   88  A    between atoms: _203  and  _204
REMARK   89  A    between atoms: _204  and  _205
REMARK   90  A    between atoms: _207  and  _209
REMARK   91  A    between atoms: _209  and  _210
REMARK   92  A    between atoms: _209  and  _212
REMARK   93  A    between atoms: _212  and  _213
REMARK   94  A    between atoms: _216  and  _218
REMARK   95  A    between atoms: _218  and  _219
REMARK   96  A    between atoms: _218  and  _221
REMARK   97  A    between atoms: _221  and  _222
REMARK   98  A    between atoms: _228  and  _230
REMARK   99  A    between atoms: _230  and  _231
REMARK  100  A    between atoms: _230  and  _233
REMARK  101  A    between atoms: _233  and  _234
REMARK  102  A    between atoms: _237  and  _239
REMARK  103  A    between atoms: _239  and  _240
REMARK  104  A    between atoms: _243  and  _245
REMARK  105  A    between atoms: _245  and  _246
REMARK  106  A    between atoms: _245  and  _248
REMARK  107  A    between atoms: _248  and  _249
REMARK  108  A    between atoms: _252  and  _254
REMARK  109  A    between atoms: _254  and  _255
REMARK  110  A    between atoms: _259  and  _260
REMARK  111  A    between atoms: _265  and  _267
REMARK  112  A    between atoms: _267  and  _268
REMARK  113  A    between atoms: _267  and  _270
REMARK  114  A    between atoms: _270  and  _271
REMARK  115  A    between atoms: _274  and  _276
REMARK  116  A    between atoms: _276  and  _277
REMARK  117  A    between atoms: _276  and  _279
REMARK  118  A    between atoms: _279  and  _280
REMARK  119  A    between atoms: _286  and  _288
REMARK  120  A    between atoms: _288  and  _289
REMARK  121  A    between atoms: _293  and  _294
REMARK  122  A    between atoms: _299  and  _301
REMARK  123  A    between atoms: _301  and  _302
REMARK  124  A    between atoms: _301  and  _304
REMARK  125  A    between atoms: _304  and  _305
REMARK  126  A    between atoms: _308  and  _310
REMARK  127  A    between atoms: _310  and  _311
REMARK  128  A    between atoms: _310  and  _313
REMARK  129  A    between atoms: _313  and  _314
REMARK  130  A    between atoms: _319  and  _320
REMARK                            x       y       z     vdW  Elec       q    Type
REMARK                         _______ _______ _______ _____ _____    ______ ____
ROOT
ATOM      1  O   HOH     1       4.999 -11.757 -20.546  0.00  0.00    +0.000 OA
ENDROOT
TORSDOF 0
REMARK  Name = ../refined-set-2016/3tk2/3tk2_pocket.pdb
REMARK  130 active torsions:
REMARK  status: ('A' for Active; 'I' for Inactive)
REMARK    1  A    between atoms: _1  and  _3
REMARK    2  A    between atoms: _3  and  _4
REMARK    3  A    between atoms: _3  and  _6
REMARK    4  A    between atoms: _6  and  _7
REMARK    5  A    between atoms: _13  and  _15
REMARK    6  A    between atoms: _15  and  _16
REMARK    7  A    between atoms: _15  and  _18
REMARK    8  A    between atoms: _18  and  _19
REMARK    9  A    between atoms: _22  and  _24
REMARK   10  A    between atoms: _24  and  _25
REMARK   11  A    between atoms: _24  and  _27
REMARK   12  A    between atoms: _27  and  _28
REMARK   13  A    between atoms: _33  and  _34
REMARK   14  A    between atoms: _36  and  _38
REMARK   15  A    between atoms: _38  and  _39
REMARK   16  A    between atoms: _38  and  _41
REMARK   17  A    between atoms: _41  and  _42
REMARK   18  A    between atoms: _45  and  _47
REMARK   19  A    between atoms: _47  and  _48
REMARK   20  A    between atoms: _47  and  _50
REMARK   21  A    between atoms: _50  and  _51
REMARK   22  A    between atoms: _51  and  _52
REMARK   23  A    between atoms: _55  and  _57
REMARK   24  A    between atoms: _57  and  _58
REMARK   25  A    between atoms: _61  and  _63
REMARK   26  A    between atoms: _63  and  _64
REMARK   27  A    between atoms: _63  and  _66
REMARK   28  A    between atoms: _66  and  _67
REMARK   29  A    between atoms: _72  and  _73
REMARK   30  A    between atoms: _75  and  _77
REMARK   31  A    between atoms: _77  and  _78
REMARK   32  A    between atoms: _80  and  _82
REMARK   33  A    between atoms: _82  and  _83
REMARK   34  A    between atoms: _82  and  _85
REMARK   35  A    between atoms: _85  and  _86
REMARK   36  A    between atoms: _86  and  _87
REMARK   37  A    between atoms: _87  and  _88
REMARK   38  A    between atoms: _88  and  _89
REMARK   39  A    between atoms: _93  and  _95
REMARK   40  A    between atoms: _95  and  _96
REMARK   41  A    between atoms: _98  and  _100
REMARK   42  A    between atoms: _100  and  _101
REMARK   43  A    between atoms: _103  and  _105
REMARK   44  A    between atoms: _105  and  _106
REMARK   45  A    between atoms: _105  and  _108
REMARK   46  A    between atoms: _111  and  _113
REMARK   47  A    between atoms: _113  and  _114
REMARK   48  A    between atoms: _113  and  _116
REMARK   49  A    between atoms: _116  and  _117
REMARK   50  A    between atoms: _117  and  _118
REMARK   51  A    between atoms: _118  and  _119
REMARK   52  A    between atoms: _119  and  _120
REMARK   53  A    between atoms: _124  and  _126
REMARK   54  A    between atoms: _126  and  _127
REMARK   55  A    between atoms: _130  and  _132
REMARK   56  A    between atoms: _132  and  _133
REMARK   57  A    between atoms: _132  and  _135
REMARK   58  A    between atoms: _135  and  _136
REMARK   59  A    between atoms: _139  and  _141
REMARK   60  A    between atoms: _141  and  _142
REMARK   61  A    between atoms: _141  and  _144
REMARK   62  A    between atoms: _144  and  _145
REMARK   63  A    between atoms: _145  and  _146
REMARK   64  A    between atoms: _148  and  _150
REMARK   65  A    between atoms: _150  and  _151
REMARK   66  A    between atoms: _150  and  _153
REMARK   67  A    between atoms: _153  and  _154
REMARK   68  A    between atoms: _157  and  _159
REMARK   69  A    between atoms: _159  and  _160
REMARK   70  A    between atoms: _159  and  _162
REMARK   71  A    between atoms: _162  and  _163
REMARK   72  A    between atoms: _166  and  _168
REMARK   73  A    between atoms: _168  and  _169
REMARK   74  A    between atoms: _168  and  _171
REMARK   75  A    between atoms: _171  and  _172
REMARK   76  A    between atoms: _177  and  _178
REMARK   77  A    between atoms: _180  and  _182
REMARK   78  A    between atoms: _182  and  _183
REMARK   79  A    between atoms: _182  and  _185
REMARK   80  A    between atoms: _185  and  _186
REMARK   81  A    between atoms: _189  and  _191
REMARK   82  A    between atoms: _191  and  _192
REMARK   83  A    between atoms: _191  and  _194
REMARK   84  A    between atoms: _194  and  _195
REMARK   85  A    between atoms: _198  and  _200
REMARK   86  A    between atoms: _200  and  _201
REMARK   87  A    between atoms: _200  and  _203
REMARK   88  A    between atoms: _203  and  _204
REMARK   89  A    between atoms: _204  and  _205
REMARK   90  A    between atoms: _207  and  _209
REMARK   91  A    between atoms: _209  and  _210
REMARK   92  A    between atoms: _209  and  _212
REMARK   93  A    between atoms: _212  and  _213
REMARK   94  A    between atoms: _216  and  _218
REMARK   95  A    between atoms: _218  and  _219
REMARK   96  A    between atoms: _218  and  _221
REMARK   97  A    between atoms: _221  and  _222
REMARK   98  A    between atoms: _228  and  _230
REMARK   99  A    between atoms: _230  and  _231
REMARK  100  A    between atoms: _230  and  _233
REMARK  101  A    between atoms: _233  and  _234
REMARK  102  A    between atoms: _237  and  _239
REMARK  103  A    between atoms: _239  and  _240
REMARK  104  A    between atoms: _243  and  _245
REMARK  105  A    between atoms: _245  and  _246
REMARK  106  A    between atoms: _245  and  _248
REMARK  107  A    between atoms: _248  and  _249
REMARK  108  A    between atoms: _252  and  _254
REMARK  109  A    between atoms: _254  and  _255
REMARK  110  A    between atoms: _259  and  _260
REMARK  111  A    between atoms: _265  and  _267
REMARK  112  A    between atoms: _267  and  _268
REMARK  113  A    between atoms: _267  and  _270
REMARK  114  A    between atoms: _270  and  _271
REMARK  115  A    between atoms: _274  and  _276
REMARK  116  A    between atoms: _276  and  _277
REMARK  117  A    between atoms: _276  and  _279
REMARK  118  A    between atoms: _279  and  _280
REMARK  119  A    between atoms: _286  and  _288
REMARK  120  A    between atoms: _288  and  _289
REMARK  121  A    between atoms: _293  and  _294
REMARK  122  A    between atoms: _299  and  _301
REMARK  123  A    between atoms: _301  and  _302
REMARK  124  A    between atoms: _301  and  _304
REMARK  125  A    between atoms: _304  and  _305
REMARK  126  A    between atoms: _308  and  _310
REMARK  127  A    between atoms: _310  and  _311
REMARK  128  A    between atoms: _310  and  _313
REMARK  129  A    between atoms: _313  and  _314
REMARK  130  A    between atoms: _319  and  _320
REMARK                            x       y       z     vdW  Elec       q    Type
REMARK                         _______ _______ _______ _____ _____    ______ ____
ROOT
ATOM      1  O   HOH     1       9.937 -14.434 -10.792  0.00  0.00    +0.000 OA
ENDROOT
TORSDOF 0
REMARK  Name = ../refined-set-2016/3tk2/3tk2_pocket.pdb
REMARK  130 active torsions:
REMARK  status: ('A' for Active; 'I' for Inactive)
REMARK    1  A    between atoms: _1  and  _3
REMARK    2  A    between atoms: _3  and  _4
REMARK    3  A    between atoms: _3  and  _6
REMARK    4  A    between atoms: _6  and  _7
REMARK    5  A    between atoms: _13  and  _15
REMARK    6  A    between atoms: _15  and  _16
REMARK    7  A    between atoms: _15  and  _18
REMARK    8  A    between atoms: _18  and  _19
REMARK    9  A    between atoms: _22  and  _24
REMARK   10  A    between atoms: _24  and  _25
REMARK   11  A    between atoms: _24  and  _27
REMARK   12  A    between atoms: _27  and  _28
REMARK   13  A    between atoms: _33  and  _34
REMARK   14  A    between atoms: _36  and  _38
REMARK   15  A    between atoms: _38  and  _39
REMARK   16  A    between atoms: _38  and  _41
REMARK   17  A    between atoms: _41  and  _42
REMARK   18  A    between atoms: _45  and  _47
REMARK   19  A    between atoms: _47  and  _48
REMARK   20  A    between atoms: _47  and  _50
REMARK   21  A    between atoms: _50  and  _51
REMARK   22  A    between atoms: _51  and  _52
REMARK   23  A    between atoms: _55  and  _57
REMARK   24  A    between atoms: _57  and  _58
REMARK   25  A    between atoms: _61  and  _63
REMARK   26  A    between atoms: _63  and  _64
REMARK   27  A    between atoms: _63  and  _66
REMARK   28  A    between atoms: _66  and  _67
REMARK   29  A    between atoms: _72  and  _73
REMARK   30  A    between atoms: _75  and  _77
REMARK   31  A    between atoms: _77  and  _78
REMARK   32  A    between atoms: _80  and  _82
REMARK   33  A    between atoms: _82  and  _83
REMARK   34  A    between atoms: _82  and  _85
REMARK   35  A    between atoms: _85  and  _86
REMARK   36  A    between atoms: _86  and  _87
REMARK   37  A    between atoms: _87  and  _88
REMARK   38  A    between atoms: _88  and  _89
REMARK   39  A    between atoms: _93  and  _95
REMARK   40  A    between atoms: _95  and  _96
REMARK   41  A    between atoms: _98  and  _100
REMARK   42  A    between atoms: _100  and  _101
REMARK   43  A    between atoms: _103  and  _105
REMARK   44  A    between atoms: _105  and  _106
REMARK   45  A    between atoms: _105  and  _108
REMARK   46  A    between atoms: _111  and  _113
REMARK   47  A    between atoms: _113  and  _114
REMARK   48  A    between atoms: _113  and  _116
REMARK   49  A    between atoms: _116  and  _117
REMARK   50  A    between atoms: _117  and  _118
REMARK   51  A    between atoms: _118  and  _119
REMARK   52  A    between atoms: _119  and  _120
REMARK   53  A    between atoms: _124  and  _126
REMARK   54  A    between atoms: _126  and  _127
REMARK   55  A    between atoms: _130  and  _132
REMARK   56  A    between atoms: _132  and  _133
REMARK   57  A    between atoms: _132  and  _135
REMARK   58  A    between atoms: _135  and  _136
REMARK   59  A    between atoms: _139  and  _141
REMARK   60  A    between atoms: _141  and  _142
REMARK   61  A    between atoms: _141  and  _144
REMARK   62  A    between atoms: _144  and  _145
REMARK   63  A    between atoms: _145  and  _146
REMARK   64  A    between atoms: _148  and  _150
REMARK   65  A    between atoms: _150  and  _151
REMARK   66  A    between atoms: _150  and  _153
REMARK   67  A    between atoms: _153  and  _154
REMARK   68  A    between atoms: _157  and  _159
REMARK   69  A    between atoms: _159  and  _160
REMARK   70  A    between atoms: _159  and  _162
REMARK   71  A    between atoms: _162  and  _163
REMARK   72  A    between atoms: _166  and  _168
REMARK   73  A    between atoms: _168  and  _169
REMARK   74  A    between atoms: _168  and  _171
REMARK   75  A    between atoms: _171  and  _172
REMARK   76  A    between atoms: _177  and  _178
REMARK   77  A    between atoms: _180  and  _182
REMARK   78  A    between atoms: _182  and  _183
REMARK   79  A    between atoms: _182  and  _185
REMARK   80  A    between atoms: _185  and  _186
REMARK   81  A    between atoms: _189  and  _191
REMARK   82  A    between atoms: _191  and  _192
REMARK   83  A    between atoms: _191  and  _194
REMARK   84  A    between atoms: _194  and  _195
REMARK   85  A    between atoms: _198  and  _200
REMARK   86  A    between atoms: _200  and  _201
REMARK   87  A    between atoms: _200  and  _203
REMARK   88  A    between atoms: _203  and  _204
REMARK   89  A    between atoms: _204  and  _205
REMARK   90  A    between atoms: _207  and  _209
REMARK   91  A    between atoms: _209  and  _210
REMARK   92  A    between atoms: _209  and  _212
REMARK   93  A    between atoms: _212  and  _213
REMARK   94  A    between atoms: _216  and  _218
REMARK   95  A    between atoms: _218  and  _219
REMARK   96  A    between atoms: _218  and  _221
REMARK   97  A    between atoms: _221  and  _222
REMARK   98  A    between atoms: _228  and  _230
REMARK   99  A    between atoms: _230  and  _231
REMARK  100  A    between atoms: _230  and  _233
REMARK  101  A    between atoms: _233  and  _234
REMARK  102  A    between atoms: _237  and  _239
REMARK  103  A    between atoms: _239  and  _240
REMARK  104  A    between atoms: _243  and  _245
REMARK  105  A    between atoms: _245  and  _246
REMARK  106  A    between atoms: _245  and  _248
REMARK  107  A    between atoms: _248  and  _249
REMARK  108  A    between atoms: _252  and  _254
REMARK  109  A    between atoms: _254  and  _255
REMARK  110  A    between atoms: _259  and  _260
REMARK  111  A    between atoms: _265  and  _267
REMARK  112  A    between atoms: _267  and  _268
REMARK  113  A    between atoms: _267  and  _270
REMARK  114  A    between atoms: _270  and  _271
REMARK  115  A    between atoms: _274  and  _276
REMARK  116  A    between atoms: _276  and  _277
REMARK  117  A    between atoms: _276  and  _279
REMARK  118  A    between atoms: _279  and  _280
REMARK  119  A    between atoms: _286  and  _288
REMARK  120  A    between atoms: _288  and  _289
REMARK  121  A    between atoms: _293  and  _294
REMARK  122  A    between atoms: _299  and  _301
REMARK  123  A    between atoms: _301  and  _302
REMARK  124  A    between atoms: _301  and  _304
REMARK  125  A    between atoms: _304  and  _305
REMARK  126  A    between atoms: _308  and  _310
REMARK  127  A    between atoms: _310  and  _311
REMARK  128  A    between atoms: _310  and  _313
REMARK  129  A    between atoms: _313  and  _314
REMARK  130  A    between atoms: _319  and  _320
REMARK                            x       y       z     vdW  Elec       q    Type
REMARK                         _______ _______ _______ _____ _____    ______ ____
ROOT
ATOM      1  O   HOH     1       1.102 -10.755 -15.469  0.00  0.00    +0.000 OA
ENDROOT
TORSDOF 0
REMARK  Name = ../refined-set-2016/3tk2/3tk2_pocket.pdb
REMARK  130 active torsions:
REMARK  status: ('A' for Active; 'I' for Inactive)
REMARK    1  A    between atoms: _1  and  _3
REMARK    2  A    between atoms: _3  and  _4
REMARK    3  A    between atoms: _3  and  _6
REMARK    4  A    between atoms: _6  and  _7
REMARK    5  A    between atoms: _13  and  _15
REMARK    6  A    between atoms: _15  and  _16
REMARK    7  A    between atoms: _15  and  _18
REMARK    8  A    between atoms: _18  and  _19
REMARK    9  A    between atoms: _22  and  _24
REMARK   10  A    between atoms: _24  and  _25
REMARK   11  A    between atoms: _24  and  _27
REMARK   12  A    between atoms: _27  and  _28
REMARK   13  A    between atoms: _33  and  _34
REMARK   14  A    between atoms: _36  and  _38
REMARK   15  A    between atoms: _38  and  _39
REMARK   16  A    between atoms: _38  and  _41
REMARK   17  A    between atoms: _41  and  _42
REMARK   18  A    between atoms: _45  and  _47
REMARK   19  A    between atoms: _47  and  _48
REMARK   20  A    between atoms: _47  and  _50
REMARK   21  A    between atoms: _50  and  _51
REMARK   22  A    between atoms: _51  and  _52
REMARK   23  A    between atoms: _55  and  _57
REMARK   24  A    between atoms: _57  and  _58
REMARK   25  A    between atoms: _61  and  _63
REMARK   26  A    between atoms: _63  and  _64
REMARK   27  A    between atoms: _63  and  _66
REMARK   28  A    between atoms: _66  and  _67
REMARK   29  A    between atoms: _72  and  _73
REMARK   30  A    between atoms: _75  and  _77
REMARK   31  A    between atoms: _77  and  _78
REMARK   32  A    between atoms: _80  and  _82
REMARK   33  A    between atoms: _82  and  _83
REMARK   34  A    between atoms: _82  and  _85
REMARK   35  A    between atoms: _85  and  _86
REMARK   36  A    between atoms: _86  and  _87
REMARK   37  A    between atoms: _87  and  _88
REMARK   38  A    between atoms: _88  and  _89
REMARK   39  A    between atoms: _93  and  _95
REMARK   40  A    between atoms: _95  and  _96
REMARK   41  A    between atoms: _98  and  _100
REMARK   42  A    between atoms: _100  and  _101
REMARK   43  A    between atoms: _103  and  _105
REMARK   44  A    between atoms: _105  and  _106
REMARK   45  A    between atoms: _105  and  _108
REMARK   46  A    between atoms: _111  and  _113
REMARK   47  A    between atoms: _113  and  _114
REMARK   48  A    between atoms: _113  and  _116
REMARK   49  A    between atoms: _116  and  _117
REMARK   50  A    between atoms: _117  and  _118
REMARK   51  A    between atoms: _118  and  _119
REMARK   52  A    between atoms: _119  and  _120
REMARK   53  A    between atoms: _124  and  _126
REMARK   54  A    between atoms: _126  and  _127
REMARK   55  A    between atoms: _130  and  _132
REMARK   56  A    between atoms: _132  and  _133
REMARK   57  A    between atoms: _132  and  _135
REMARK   58  A    between atoms: _135  and  _136
REMARK   59  A    between atoms: _139  and  _141
REMARK   60  A    between atoms: _141  and  _142
REMARK   61  A    between atoms: _141  and  _144
REMARK   62  A    between atoms: _144  and  _145
REMARK   63  A    between atoms: _145  and  _146
REMARK   64  A    between atoms: _148  and  _150
REMARK   65  A    between atoms: _150  and  _151
REMARK   66  A    between atoms: _150  and  _153
REMARK   67  A    between atoms: _153  and  _154
REMARK   68  A    between atoms: _157  and  _159
REMARK   69  A    between atoms: _159  and  _160
REMARK   70  A    between atoms: _159  and  _162
REMARK   71  A    between atoms: _162  and  _163
REMARK   72  A    between atoms: _166  and  _168
REMARK   73  A    between atoms: _168  and  _169
REMARK   74  A    between atoms: _168  and  _171
REMARK   75  A    between atoms: _171  and  _172
REMARK   76  A    between atoms: _177  and  _178
REMARK   77  A    between atoms: _180  and  _182
REMARK   78  A    between atoms: _182  and  _183
REMARK   79  A    between atoms: _182  and  _185
REMARK   80  A    between atoms: _185  and  _186
REMARK   81  A    between atoms: _189  and  _191
REMARK   82  A    between atoms: _191  and  _192
REMARK   83  A    between atoms: _191  and  _194
REMARK   84  A    between atoms: _194  and  _195
REMARK   85  A    between atoms: _198  and  _200
REMARK   86  A    between atoms: _200  and  _201
REMARK   87  A    between atoms: _200  and  _203
REMARK   88  A    between atoms: _203  and  _204
REMARK   89  A    between atoms: _204  and  _205
REMARK   90  A    between atoms: _207  and  _209
REMARK   91  A    between atoms: _209  and  _210
REMARK   92  A    between atoms: _209  and  _212
REMARK   93  A    between atoms: _212  and  _213
REMARK   94  A    between atoms: _216  and  _218
REMARK   95  A    between atoms: _218  and  _219
REMARK   96  A    between atoms: _218  and  _221
REMARK   97  A    between atoms: _221  and  _222
REMARK   98  A    between atoms: _228  and  _230
REMARK   99  A    between atoms: _230  and  _231
REMARK  100  A    between atoms: _230  and  _233
REMARK  101  A    between atoms: _233  and  _234
REMARK  102  A    between atoms: _237  and  _239
REMARK  103  A    between atoms: _239  and  _240
REMARK  104  A    between atoms: _243  and  _245
REMARK  105  A    between atoms: _245  and  _246
REMARK  106  A    between atoms: _245  and  _248
REMARK  107  A    between atoms: _248  and  _249
REMARK  108  A    between atoms: _252  and  _254
REMARK  109  A    between atoms: _254  and  _255
REMARK  110  A    between atoms: _259  and  _260
REMARK  111  A    between atoms: _265  and  _267
REMARK  112  A    between atoms: _267  and  _268
REMARK  113  A    between atoms: _267  and  _270
REMARK  114  A    between atoms: _270  and  _271
REMARK  115  A    between atoms: _274  and  _276
REMARK  116  A    between atoms: _276  and  _277
REMARK  117  A    between atoms: _276  and  _279
REMARK  118  A    between atoms: _279  and  _280
REMARK  119  A    between atoms: _286  and  _288
REMARK  120  A    between atoms: _288  and  _289
REMARK  121  A    between atoms: _293  and  _294
REMARK  122  A    between atoms: _299  and  _301
REMARK  123  A    between atoms: _301  and  _302
REMARK  124  A    between atoms: _301  and  _304
REMARK  125  A    between atoms: _304  and  _305
REMARK  126  A    between atoms: _308  and  _310
REMARK  127  A    between atoms: _310  and  _311
REMARK  128  A    between atoms: _310  and  _313
REMARK  129  A    between atoms: _313  and  _314
REMARK  130  A    between atoms: _319  and  _320
REMARK                            x       y       z     vdW  Elec       q    Type
REMARK                         _______ _______ _______ _____ _____    ______ ____
ROOT
ATOM      1  O   HOH     1       7.120 -11.471 -19.349  0.00  0.00    +0.000 OA
ENDROOT
TORSDOF 0
REMARK  Name = ../refined-set-2016/3tk2/3tk2_pocket.pdb
REMARK  130 active torsions:
REMARK  status: ('A' for Active; 'I' for Inactive)
REMARK    1  A    between atoms: _1  and  _3
REMARK    2  A    between atoms: _3  and  _4
REMARK    3  A    between atoms: _3  and  _6
REMARK    4  A    between atoms: _6  and  _7
REMARK    5  A    between atoms: _13  and  _15
REMARK    6  A    between atoms: _15  and  _16
REMARK    7  A    between atoms: _15  and  _18
REMARK    8  A    between atoms: _18  and  _19
REMARK    9  A    between atoms: _22  and  _24
REMARK   10  A    between atoms: _24  and  _25
REMARK   11  A    between atoms: _24  and  _27
REMARK   12  A    between atoms: _27  and  _28
REMARK   13  A    between atoms: _33  and  _34
REMARK   14  A    between atoms: _36  and  _38
REMARK   15  A    between atoms: _38  and  _39
REMARK   16  A    between atoms: _38  and  _41
REMARK   17  A    between atoms: _41  and  _42
REMARK   18  A    between atoms: _45  and  _47
REMARK   19  A    between atoms: _47  and  _48
REMARK   20  A    between atoms: _47  and  _50
REMARK   21  A    between atoms: _50  and  _51
REMARK   22  A    between atoms: _51  and  _52
REMARK   23  A    between atoms: _55  and  _57
REMARK   24  A    between atoms: _57  and  _58
REMARK   25  A    between atoms: _61  and  _63
REMARK   26  A    between atoms: _63  and  _64
REMARK   27  A    between atoms: _63  and  _66
REMARK   28  A    between atoms: _66  and  _67
REMARK   29  A    between atoms: _72  and  _73
REMARK   30  A    between atoms: _75  and  _77
REMARK   31  A    between atoms: _77  and  _78
REMARK   32  A    between atoms: _80  and  _82
REMARK   33  A    between atoms: _82  and  _83
REMARK   34  A    between atoms: _82  and  _85
REMARK   35  A    between atoms: _85  and  _86
REMARK   36  A    between atoms: _86  and  _87
REMARK   37  A    between atoms: _87  and  _88
REMARK   38  A    between atoms: _88  and  _89
REMARK   39  A    between atoms: _93  and  _95
REMARK   40  A    between atoms: _95  and  _96
REMARK   41  A    between atoms: _98  and  _100
REMARK   42  A    between atoms: _100  and  _101
REMARK   43  A    between atoms: _103  and  _105
REMARK   44  A    between atoms: _105  and  _106
REMARK   45  A    between atoms: _105  and  _108
REMARK   46  A    between atoms: _111  and  _113
REMARK   47  A    between atoms: _113  and  _114
REMARK   48  A    between atoms: _113  and  _116
REMARK   49  A    between atoms: _116  and  _117
REMARK   50  A    between atoms: _117  and  _118
REMARK   51  A    between atoms: _118  and  _119
REMARK   52  A    between atoms: _119  and  _120
REMARK   53  A    between atoms: _124  and  _126
REMARK   54  A    between atoms: _126  and  _127
REMARK   55  A    between atoms: _130  and  _132
REMARK   56  A    between atoms: _132  and  _133
REMARK   57  A    between atoms: _132  and  _135
REMARK   58  A    between atoms: _135  and  _136
REMARK   59  A    between atoms: _139  and  _141
REMARK   60  A    between atoms: _141  and  _142
REMARK   61  A    between atoms: _141  and  _144
REMARK   62  A    between atoms: _144  and  _145
REMARK   63  A    between atoms: _145  and  _146
REMARK   64  A    between atoms: _148  and  _150
REMARK   65  A    between atoms: _150  and  _151
REMARK   66  A    between atoms: _150  and  _153
REMARK   67  A    between atoms: _153  and  _154
REMARK   68  A    between atoms: _157  and  _159
REMARK   69  A    between atoms: _159  and  _160
REMARK   70  A    between atoms: _159  and  _162
REMARK   71  A    between atoms: _162  and  _163
REMARK   72  A    between atoms: _166  and  _168
REMARK   73  A    between atoms: _168  and  _169
REMARK   74  A    between atoms: _168  and  _171
REMARK   75  A    between atoms: _171  and  _172
REMARK   76  A    between atoms: _177  and  _178
REMARK   77  A    between atoms: _180  and  _182
REMARK   78  A    between atoms: _182  and  _183
REMARK   79  A    between atoms: _182  and  _185
REMARK   80  A    between atoms: _185  and  _186
REMARK   81  A    between atoms: _189  and  _191
REMARK   82  A    between atoms: _191  and  _192
REMARK   83  A    between atoms: _191  and  _194
REMARK   84  A    between atoms: _194  and  _195
REMARK   85  A    between atoms: _198  and  _200
REMARK   86  A    between atoms: _200  and  _201
REMARK   87  A    between atoms: _200  and  _203
REMARK   88  A    between atoms: _203  and  _204
REMARK   89  A    between atoms: _204  and  _205
REMARK   90  A    between atoms: _207  and  _209
REMARK   91  A    between atoms: _209  and  _210
REMARK   92  A    between atoms: _209  and  _212
REMARK   93  A    between atoms: _212  and  _213
REMARK   94  A    between atoms: _216  and  _218
REMARK   95  A    between atoms: _218  and  _219
REMARK   96  A    between atoms: _218  and  _221
REMARK   97  A    between atoms: _221  and  _222
REMARK   98  A    between atoms: _228  and  _230
REMARK   99  A    between atoms: _230  and  _231
REMARK  100  A    between atoms: _230  and  _233
REMARK  101  A    between atoms: _233  and  _234
REMARK  102  A    between atoms: _237  and  _239
REMARK  103  A    between atoms: _239  and  _240
REMARK  104  A    between atoms: _243  and  _245
REMARK  105  A    between atoms: _245  and  _246
REMARK  106  A    between atoms: _245  and  _248
REMARK  107  A    between atoms: _248  and  _249
REMARK  108  A    between atoms: _252  and  _254
REMARK  109  A    between atoms: _254  and  _255
REMARK  110  A    between atoms: _259  and  _260
REMARK  111  A    between atoms: _265  and  _267
REMARK  112  A    between atoms: _267  and  _268
REMARK  113  A    between atoms: _267  and  _270
REMARK  114  A    between atoms: _270  and  _271
REMARK  115  A    between atoms: _274  and  _276
REMARK  116  A    between atoms: _276  and  _277
REMARK  117  A    between atoms: _276  and  _279
REMARK  118  A    between atoms: _279  and  _280
REMARK  119  A    between atoms: _286  and  _288
REMARK  120  A    between atoms: _288  and  _289
REMARK  121  A    between atoms: _293  and  _294
REMARK  122  A    between atoms: _299  and  _301
REMARK  123  A    between atoms: _301  and  _302
REMARK  124  A    between atoms: _301  and  _304
REMARK  125  A    between atoms: _304  and  _305
REMARK  126  A    between atoms: _308  and  _310
REMARK  127  A    between atoms: _310  and  _311
REMARK  128  A    between atoms: _310  and  _313
REMARK  129  A    between atoms: _313  and  _314
REMARK  130  A    between atoms: _319  and  _320
REMARK                            x       y       z     vdW  Elec       q    Type
REMARK                         _______ _______ _______ _____ _____    ______ ____
ROOT
ATOM      1  O   HOH     1       5.107  -8.794 -24.414  0.00  0.00    +0.000 OA
ENDROOT
TORSDOF 0
